@<TRIPOS>MOLECULE
O69
   73    79     1     0     0
SMALL
No Charge or Current Charge


@<TRIPOS>ATOM
      1 N1          14.2500     1.5030   -17.9260 na         1 O69      -0.151600
      2 C7          21.6870    -1.9140   -17.9750 ca         1 O69      -0.111000
      3 C8          22.1480    -0.7000   -17.4390 ca         1 O69      -0.112000
      4 N2          18.6940    -0.9170   -16.2540 ns         1 O69      -0.501900
      5 C9          21.6140     0.5190   -17.8940 ca         1 O69      -0.089000
      6 O1          15.8090     2.1940   -20.6040 o          1 O69      -0.607100
      7 C1          18.5050     3.0660   -20.8830 c3         1 O69       0.158000
      8 C5          20.1720    -0.6940   -19.4420 ca         1 O69      -0.039000
      9 C6          20.6990    -1.9120   -18.9740 ca         1 O69      -0.114000
     10 N3          11.2980    -1.1950   -15.1360 nb         1 O69      -0.663000
     11 C4          19.1930    -0.6850   -20.4500 ca         1 O69      -0.108000
     12 C3          18.6720     0.5330   -20.9170 ca         1 O69      -0.081000
     13 C2          19.1200     1.7580   -20.3830 ca         1 O69      -0.104300
     14 N4          12.6680     2.5600   -16.5980 nc         1 O69      -0.562100
     15 N           17.5050     3.5460   -19.9330 ns         1 O69      -0.501900
     16 C           19.5430     4.1660   -21.1810 c3         1 O69      -0.101100
     17 O           16.8760    -1.6660   -15.1930 o          1 O69      -0.605100
     18 C10         20.6270     0.5260   -18.8980 ca         1 O69      -0.042000
     19 C11         20.0960     1.7450   -19.3620 ca         1 O69      -0.088000
     20 C12         16.2350     3.0310   -19.8210 c          1 O69       0.620700
     21 C13         15.3850     3.6280   -18.7310 ca         1 O69      -0.155600
     22 C14         15.4410     5.0220   -18.4760 ca         1 O69      -0.071000
     23 C15         14.5620     5.6220   -17.5510 ca         1 O69      -0.146000
     24 C16         13.5980     4.8440   -16.8830 ca         1 O69      -0.025000
     25 C17         13.5640     3.4650   -17.1240 ca         1 O69       0.059400
     26 C18         14.4520     2.8690   -17.9800 ca         1 O69      -0.030200
     27 C19         15.2230     0.4300   -18.1560 cy         1 O69       0.067300
     28 C20         16.6900     0.5960   -17.6020 cy         1 O69      -0.085400
     29 C21         16.7410    -0.9770   -17.6800 cy         1 O69      -0.172700
     30 C22         17.3500    -1.2250   -16.2330 c          1 O69       0.608100
     31 C23         19.5940    -1.0200   -15.1020 c3         1 O69       0.096300
     32 C24         15.2060    -0.9060   -17.3170 cy         1 O69      -0.085400
     33 C25         13.0590     1.4050   -17.1650 cd         1 O69       0.477400
     34 C26         12.3270     0.1650   -16.8720 ca         1 O69      -0.154900
     35 C27         11.9280    -0.7630   -17.8660 ca         1 O69       0.008000
     36 C28         12.1680    -0.5670   -19.2460 ca         1 O69      -0.107000
     37 C29         11.7640    -1.5370   -20.1800 ca         1 O69      -0.090000
     38 C30         11.1110    -2.7030   -19.7520 ca         1 O69      -0.114000
     39 C31         10.8460    -2.8970   -18.3870 ca         1 O69      -0.082000
     40 C32         11.2470    -1.9270   -17.4480 ca         1 O69      -0.108000
     41 C33         10.9620    -2.1010   -16.0800 ca         1 O69       0.372900
     42 C34         11.9570    -0.0840   -15.5380 ca         1 O69       0.369900
     43 H2          22.9130    -0.7020   -16.6670 ha         1 O69       0.117000
     44 H3          19.0750    -0.6000   -17.1380 hn         1 O69       0.319500
     45 H4          21.9730     1.4540   -17.4710 ha         1 O69       0.116000
     46 H5          17.9910     2.8580   -21.8330 h1         1 O69       0.080700
     47 H6          20.3490    -2.8560   -19.3870 ha         1 O69       0.116000
     48 H7          18.8330    -1.6200   -20.8740 ha         1 O69       0.117000
     49 H8          17.9080     0.5230   -21.6920 ha         1 O69       0.127000
     50 H9          17.7790     4.2390   -19.2490 hn         1 O69       0.318500
     51 H10         19.0570     5.0330   -21.6440 hc         1 O69       0.045700
     52 H11         20.0430     4.5070   -20.2670 hc         1 O69       0.045700
     53 H12         20.3060     3.7930   -21.8750 hc         1 O69       0.045700
     54 H13         20.4400     2.6770   -18.9230 ha         1 O69       0.112000
     55 H14         16.1350     5.6560   -19.0250 ha         1 O69       0.112000
     56 H15         14.6050     6.6950   -17.3790 ha         1 O69       0.118000
     57 H16         12.8910     5.3030   -16.1950 ha         1 O69       0.133000
     58 H17         15.1930     0.2240   -19.2320 h1         1 O69       0.093700
     59 H18         16.7280     1.0690   -16.6110 hc         1 O69       0.076450
     60 H19         17.3950     1.1170   -18.2530 hc         1 O69       0.076450
     61 H20         17.1190    -1.5130   -18.5570 hc         1 O69       0.066700
     62 H21         20.4810    -0.3980   -15.2740 h1         1 O69       0.038700
     63 H22         19.0870    -0.6690   -14.1940 h1         1 O69       0.038700
     64 H23         19.9030    -2.0650   -14.9700 h1         1 O69       0.038700
     65 H24         14.5920    -1.7150   -17.7260 hc         1 O69       0.076450
     66 H25         14.9120    -0.7480   -16.2720 hc         1 O69       0.076450
     67 H26         12.6510     0.3320   -19.6160 ha         1 O69       0.136000
     68 H27         11.9560    -1.3810   -21.2400 ha         1 O69       0.118000
     69 H28         10.8000    -3.4510   -20.4780 ha         1 O69       0.117000
     70 H29         10.3260    -3.7960   -18.0620 ha         1 O69       0.117000
     71 H30         10.4350    -2.9870   -15.7280 h4         1 O69       0.020100
     72 H31         12.2240     0.6170   -14.7460 h4         1 O69       0.037100
     73 H1          22.0960    -2.8560   -17.6170 ha         1 O69       0.115000
@<TRIPOS>BOND
     1     1    26 1   
     2     1    27 1   
     3     1    33 1   
     4     2     3 ar  
     5     2     9 ar  
     6     2    73 1   
     7     3     5 ar  
     8     3    43 1   
     9     4    30 1   
    10     4    31 1   
    11     4    44 1   
    12     5    18 ar  
    13     5    45 1   
    14     6    20 2   
    15     7    13 1   
    16     7    15 1   
    17     7    16 1   
    18     7    46 1   
    19     8     9 ar  
    20     8    11 ar  
    21     8    18 ar  
    22     9    47 1   
    23    10    41 ar  
    24    10    42 ar  
    25    11    12 ar  
    26    11    48 1   
    27    12    13 ar  
    28    12    49 1   
    29    13    19 ar  
    30    14    25 1   
    31    14    33 2   
    32    15    20 1   
    33    15    50 1   
    34    16    51 1   
    35    16    52 1   
    36    16    53 1   
    37    17    30 2   
    38    18    19 ar  
    39    19    54 1   
    40    20    21 1   
    41    21    22 ar  
    42    21    26 ar  
    43    22    23 ar  
    44    22    55 1   
    45    23    24 ar  
    46    23    56 1   
    47    24    25 ar  
    48    24    57 1   
    49    25    26 ar  
    50    27    28 1   
    51    27    32 1   
    52    27    58 1   
    53    28    29 1   
    54    28    59 1   
    55    28    60 1   
    56    29    30 1   
    57    29    32 1   
    58    29    61 1   
    59    31    62 1   
    60    31    63 1   
    61    31    64 1   
    62    32    65 1   
    63    32    66 1   
    64    33    34 1   
    65    34    35 ar  
    66    34    42 ar  
    67    35    36 ar  
    68    35    40 ar  
    69    36    37 ar  
    70    36    67 1   
    71    37    38 ar  
    72    37    68 1   
    73    38    39 ar  
    74    38    69 1   
    75    39    40 ar  
    76    39    70 1   
    77    40    41 ar  
    78    41    71 1   
    79    42    72 1   
@<TRIPOS>SUBSTRUCTURE
     1 O69         1 TEMP              0 ****  ****    0 ROOT
