@<TRIPOS>MOLECULE
O6A
   52    55     1     0     0
SMALL
No Charge or Current Charge


@<TRIPOS>ATOM
      1 C27         -0.6510    -0.3970    -0.1970 c6         1 O6A       0.110700
      2 C29         -0.0840    -1.4490    -1.1760 c6         1 O6A      -0.090400
      3 C12          4.3220    -0.8020     0.2020 ca         1 O6A      -0.312500
      4 C24         -0.2240    -0.7780     1.2390 c6         1 O6A      -0.090400
      5 C32          1.4480    -1.5780    -1.0220 c6         1 O6A       0.192300
      6 N01          7.8390     2.7730    -0.7270 n8         1 O6A      -1.000200
      7 C07          5.6570     1.6170    -0.3960 ca         1 O6A      -0.028300
      8 C08          5.3910     0.6810    -1.4130 ca         1 O6A      -0.124000
      9 C10          4.7290    -0.5240    -1.1200 ca         1 O6A      -0.017500
     10 C13          4.5930     0.1300     1.2240 ca         1 O6A      -0.017500
     11 C15          5.2550     1.3330     0.9240 ca         1 O6A      -0.124000
     12 N20          1.8220    -1.9320     0.3730 n3         1 O6A      -0.712500
     13 C21          1.3110    -0.9240     1.3390 c6         1 O6A       0.192300
     14 N35         -2.1130    -0.3290    -0.3070 ns         1 O6A      -0.489900
     15 C37         -2.9040     0.7440     0.0630 c          1 O6A       0.528600
     16 O38         -2.4150     1.7730     0.5180 o          1 O6A      -0.589100
     17 C39         -4.3720     0.5180    -0.1470 cc         1 O6A       0.222500
     18 C40         -5.3270     1.5050     0.1760 cc         1 O6A      -0.199000
     19 C42         -6.5230     0.9600    -0.1410 cd         1 O6A       0.211300
     20 O43         -6.3380    -0.3040    -0.6380 os         1 O6A      -0.063700
     21 N44         -4.9240    -0.5890    -0.6390 nd         1 O6A      -0.364300
     22 C45         -7.8770     1.5610    -0.0070 cx         1 O6A      -0.196000
     23 C47         -9.0730     0.7150     0.3720 cx         1 O6A      -0.105400
     24 C50         -8.9610     1.2790    -1.0250 cx         1 O6A      -0.105400
     25 H1          -0.2310     0.5890    -0.4500 h1         1 O6A       0.080700
     26 H2          -0.5500    -2.4270    -0.9940 hc         1 O6A       0.060700
     27 H3          -0.3270    -1.1690    -2.2100 hc         1 O6A       0.060700
     28 H4          -0.5660    -0.0140     1.9490 hc         1 O6A       0.060700
     29 H5          -0.7000    -1.7220     1.5370 hc         1 O6A       0.060700
     30 H6           1.7960    -2.3470    -1.7270 h1         1 O6A       0.058200
     31 H7           1.9190    -0.6300    -1.3210 h1         1 O6A       0.058200
     32 H8           8.2700     3.6960    -0.8590 hn         1 O6A       0.401500
     33 H9           8.1430     2.4950     0.2140 hn         1 O6A       0.401500
     34 H11          6.0940     3.6910     0.0200 h1         1 O6A       0.042200
     35 H12          6.0460     3.2860    -1.7100 h1         1 O6A       0.042200
     36 H13          5.7000     0.8870    -2.4350 ha         1 O6A       0.127000
     37 H14          4.5350    -1.2350    -1.9220 ha         1 O6A       0.133500
     38 H15          4.2910    -0.0700     2.2520 ha         1 O6A       0.133500
     39 H16          5.4560     2.0460     1.7200 ha         1 O6A       0.127000
     40 H17          1.7760     0.0560     1.1580 h1         1 O6A       0.058200
     41 H18          1.5570    -1.2120     2.3710 h1         1 O6A       0.058200
     42 H19         -2.6090    -1.1350    -0.6730 hn         1 O6A       0.334500
     43 H20         -5.1270     2.4870     0.5890 ha         1 O6A       0.171000
     44 H21         -7.8480     2.5690     0.4020 hc         1 O6A       0.100700
     45 H22         -8.9280    -0.3560     0.4980 hc         1 O6A       0.082200
     46 H23         -9.8140     1.1520     1.0380 hc         1 O6A       0.082200
     47 H24         -9.6270     2.0960    -1.2970 hc         1 O6A       0.082200
     48 H25         -8.7410     0.5860    -1.8340 hc         1 O6A       0.082200
     49 S17          3.4660    -2.3440     0.5820 sy         1 O6A       1.150600
     50 C04          6.3680     2.9270    -0.7220 c3         1 O6A       0.188100
     51 O18          3.7700    -3.3470    -0.4460 o          1 O6A      -0.534000
     52 O19          3.6290    -2.6630     2.0060 o          1 O6A      -0.534000
@<TRIPOS>BOND
     1     1     2 1   
     2     1     4 1   
     3     1    14 1   
     4     1    25 1   
     5     2     5 1   
     6     2    26 1   
     7     2    27 1   
     8     3     9 ar  
     9     3    10 ar  
    10     3    49 1   
    11     4    13 1   
    12     4    28 1   
    13     4    29 1   
    14     5    12 1   
    15     5    30 1   
    16     5    31 1   
    17     6    32 1   
    18     6    33 1   
    19     6    50 1   
    20     7     8 ar  
    21     7    11 ar  
    22     7    50 1   
    23     8     9 ar  
    24     8    36 1   
    25     9    37 1   
    26    10    11 ar  
    27    10    38 1   
    28    11    39 1   
    29    12    13 1   
    30    12    49 1   
    31    13    40 1   
    32    13    41 1   
    33    14    15 1   
    34    14    42 1   
    35    15    16 2   
    36    15    17 1   
    37    17    18 1   
    38    17    21 2   
    39    18    19 2   
    40    18    43 1   
    41    19    20 1   
    42    19    22 1   
    43    20    21 1   
    44    22    23 1   
    45    22    24 1   
    46    22    44 1   
    47    23    24 1   
    48    23    45 1   
    49    23    46 1   
    50    24    47 1   
    51    24    48 1   
    52    34    50 1   
    53    35    50 1   
    54    49    51 2   
    55    49    52 2   
@<TRIPOS>SUBSTRUCTURE
     1 O6A         1 TEMP              0 ****  ****    0 ROOT
