@<TRIPOS>MOLECULE
O6A
   52    55     1     0     0
SMALL
bcc


@<TRIPOS>ATOM
      1 C27         -0.7640    -0.2440    -0.1000 c6         1 O6A       0.110700
      2 C29         -0.1880    -1.1700    -1.1650 c6         1 O6A      -0.090400
      3 C12          4.3420    -0.8130     0.2570 ca         1 O6A      -0.312500
      4 C24         -0.2700    -0.6680     1.2800 c6         1 O6A      -0.090400
      5 C32          1.3290    -1.2160    -1.0770 c6         1 O6A       0.192300
      6 N01          7.4670     2.7610    -1.4760 n8         1 O6A      -0.889800
      7 C07          5.9440     1.4400    -0.0580 ca         1 O6A      -0.028300
      8 C08          5.5750     0.6750    -1.1600 ca         1 O6A      -0.142000
      9 C10          4.7790    -0.4510    -1.0100 ca         1 O6A      -0.035500
     10 C13          4.6980    -0.0630     1.3730 ca         1 O6A      -0.035500
     11 C15          5.4980     1.0530     1.2050 ca         1 O6A      -0.142000
     12 N20          1.7260    -1.6350     0.2700 n3         1 O6A      -0.712500
     13 C21          1.2490    -0.7230     1.3120 c6         1 O6A       0.192300
     14 N35         -2.2090    -0.2260    -0.1600 ns         1 O6A      -0.556900
     15 C37         -2.9450     0.8920    -0.1850 c          1 O6A       0.595600
     16 O38         -2.5000     2.0290    -0.1940 o          1 O6A      -0.589100
     17 C39         -4.4200     0.6810    -0.2050 cc         1 O6A       0.287800
     18 C40         -5.4070     1.6910    -0.2310 cc         1 O6A      -0.347600
     19 C42         -6.5710     0.9920    -0.2360 cd         1 O6A       0.321000
     20 O43         -6.2910    -0.3180    -0.2160 os         1 O6A      -0.108100
     21 N44         -4.9500    -0.5080    -0.1970 nd         1 O6A      -0.364300
     22 C45         -7.9690     1.4100    -0.2590 cx         1 O6A      -0.196000
     23 C47         -9.0270     0.6230     0.4720 cx         1 O6A      -0.105400
     24 C50         -9.0040     0.6170    -1.0160 cx         1 O6A      -0.105400
     25 H1          -0.4200     0.7730    -0.2990 h1         1 O6A       0.080700
     26 H2          -0.5840    -2.1810    -1.0380 hc         1 O6A       0.060700
     27 H3          -0.4720    -0.8250    -2.1600 hc         1 O6A       0.060700
     28 H4          -0.6100     0.0410     2.0370 hc         1 O6A       0.060700
     29 H5          -0.6790    -1.6490     1.5360 hc         1 O6A       0.060700
     30 H6           1.7100    -1.9260    -1.8090 h1         1 O6A       0.058200
     31 H7           1.7490    -0.2300    -1.3150 h1         1 O6A       0.058200
     32 H8           7.9060     3.6680    -1.5600 hn         1 O6A       0.346300
     33 H9           8.2170     2.0830    -1.5170 hn         1 O6A       0.346300
     34 H11          7.4760     2.7160     0.6690 h1         1 O6A       0.042200
     35 H12          6.1420     3.5460    -0.0950 h1         1 O6A       0.042200
     36 H13          5.9180     0.9570    -2.1460 ha         1 O6A       0.145000
     37 H14          4.5170    -1.0400    -1.8800 ha         1 O6A       0.151500
     38 H15          4.3730    -0.3470     2.3640 ha         1 O6A       0.151500
     39 H16          5.7870     1.6290     2.0760 ha         1 O6A       0.145000
     40 H17          1.6530     0.2870     1.1560 h1         1 O6A       0.058200
     41 H18          1.5820    -1.0690     2.2870 h1         1 O6A       0.058200
     42 H19         -2.6910    -1.1130    -0.1210 hn         1 O6A       0.334500
     43 H20         -5.2730     2.7580    -0.2420 ha         1 O6A       0.189000
     44 H21         -8.0810     2.4870    -0.2650 hc         1 O6A       0.100700
     45 H22         -8.7220    -0.2740     0.9940 hc         1 O6A       0.082200
     46 H23         -9.7930     1.1970     0.9760 hc         1 O6A       0.082200
     47 H24         -9.7540     1.1860    -1.5480 hc         1 O6A       0.082200
     48 H25         -8.6820    -0.2850    -1.5210 hc         1 O6A       0.082200
     49 S17          3.2710    -2.2060     0.4460 sy         1 O6A       1.292200
     50 C04          6.7970     2.6750    -0.1940 c3         1 O6A       0.188100
     51 O18          3.5140    -3.1220    -0.6570 o          1 O6A      -0.604800
     52 O19          3.3870    -2.6910     1.8120 o          1 O6A      -0.604800
@<TRIPOS>BOND
     1     1     2 1   
     2     1     4 1   
     3     1    14 1   
     4     1    25 1   
     5     2     5 1   
     6     2    26 1   
     7     2    27 1   
     8     3     9 ar  
     9     3    10 ar  
    10     3    49 1   
    11     4    13 1   
    12     4    28 1   
    13     4    29 1   
    14     5    12 1   
    15     5    30 1   
    16     5    31 1   
    17     6    32 1   
    18     6    33 1   
    19     6    50 1   
    20     7     8 ar  
    21     7    11 ar  
    22     7    50 1   
    23     8     9 ar  
    24     8    36 1   
    25     9    37 1   
    26    10    11 ar  
    27    10    38 1   
    28    11    39 1   
    29    12    13 1   
    30    12    49 1   
    31    13    40 1   
    32    13    41 1   
    33    14    15 1   
    34    14    42 1   
    35    15    16 2   
    36    15    17 1   
    37    17    18 1   
    38    17    21 2   
    39    18    19 2   
    40    18    43 1   
    41    19    20 1   
    42    19    22 1   
    43    20    21 1   
    44    22    23 1   
    45    22    24 1   
    46    22    44 1   
    47    23    24 1   
    48    23    45 1   
    49    23    46 1   
    50    24    47 1   
    51    24    48 1   
    52    34    50 1   
    53    35    50 1   
    54    49    51 2   
    55    49    52 2   
@<TRIPOS>SUBSTRUCTURE
     1 O6A         1 TEMP              0 ****  ****    0 ROOT
