@<TRIPOS>MOLECULE
O6D
   61    64     1     0     0
SMALL
No Charge or Current Charge


@<TRIPOS>ATOM
      1 C4           5.9330    -0.9690     0.9620 ca         1 O6D       0.273000
      2 C5           4.6560    -0.4320     0.7260 ca         1 O6D      -0.127000
      3 C6           4.4530     0.6570    -0.1660 cp         1 O6D      -0.100500
      4 C7           3.0800     1.2240    -0.4110 cp         1 O6D       0.205500
      5 C8           2.8600     2.5170    -0.9440 ca         1 O6D      -0.281000
      6 C9           1.5390     2.9450    -1.1330 ca         1 O6D       0.165300
      7 C11          0.7790     0.9360    -0.3000 ca         1 O6D       0.415300
      8 C14         -1.6350     0.5700     0.1890 c3         1 O6D       0.004300
      9 C15         -2.6270    -0.6470     0.3260 c3         1 O6D       0.306600
     10 C24         -6.7510     0.7670    -0.1560 ca         1 O6D      -0.123500
     11 C29         -2.2130    -3.8420    -2.6580 ca         1 O6D      -0.123500
     12 C23         -6.3330     0.2570     1.0830 ca         1 O6D      -0.124250
     13 C25         -5.8470     0.8220    -1.2260 ca         1 O6D      -0.124250
     14 C28         -2.9020    -4.0670    -1.4580 ca         1 O6D      -0.124250
     15 C30         -1.6530    -2.5820    -2.9130 ca         1 O6D      -0.124250
     16 C1           5.6000     1.1770    -0.8190 ca         1 O6D      -0.135000
     17 C22         -5.0130    -0.1970     1.2540 ca         1 O6D      -0.082000
     18 C26         -4.5270     0.3690    -1.0580 ca         1 O6D      -0.082000
     19 C27         -3.0220    -3.0360    -0.5100 ca         1 O6D      -0.082000
     20 C31         -1.7710    -1.5490    -1.9660 ca         1 O6D      -0.082000
     21 C2           6.8780     0.6440    -0.5890 ca         1 O6D      -0.090000
     22 C21         -4.0860    -0.1470     0.1830 ca         1 O6D      -0.051300
     23 C20         -2.4420    -1.7660    -0.7360 ca         1 O6D      -0.051300
     24 C3           7.0590    -0.4300     0.3020 ca         1 O6D      -0.140300
     25 C16         -1.8000     1.5620     1.3870 c          1 O6D       0.725000
     26 C34          8.4640    -0.9860     0.5300 c3         1 O6D      -0.035800
     27 C33          1.2180     4.3120    -1.7060 c3         1 O6D      -0.147400
     28 N12          2.0210     0.4530    -0.0950 nb         1 O6D      -0.224000
     29 N10          0.4990     2.1530    -0.8190 nb         1 O6D      -0.228000
     30 N35          6.0660    -2.0190     1.8380 nv         1 O6D      -1.073000
     31 O17         -0.9240     1.6230     2.2430 o          1 O6D      -0.702000
     32 O18         -2.7130     2.3760     1.3310 o          1 O6D      -0.702000
     33 O13         -0.2600     0.0870     0.0210 os         1 O6D      -0.434300
     34 O19         -2.4810    -1.2440     1.6530 os         1 O6D      -0.460000
     35 H1           3.8100    -0.8620     1.2540 ha         1 O6D       0.149000
     36 H2           3.6850     3.1760    -1.1930 ha         1 O6D       0.116000
     37 H3          -1.9300     1.1280    -0.7080 h1         1 O6D       0.057700
     38 H6          -7.0320     0.2130     1.9150 ha         1 O6D       0.095500
     39 H7          -6.1670     1.2150    -2.1880 ha         1 O6D       0.095500
     40 H8          -3.3490    -5.0390    -1.2620 ha         1 O6D       0.095500
     41 H9          -1.1300    -2.4000    -3.8490 ha         1 O6D       0.095500
     42 H10          5.5060     1.9950    -1.5280 ha         1 O6D       0.112000
     43 H11         -4.7230    -0.5830     2.2280 ha         1 O6D       0.118500
     44 H12         -3.8450     0.4190    -1.9040 ha         1 O6D       0.118500
     45 H13         -3.5720    -3.2270     0.4090 ha         1 O6D       0.118500
     46 H14         -1.3430    -0.5810    -2.2080 ha         1 O6D       0.118500
     47 H15          7.7320     1.0700    -1.1120 ha         1 O6D       0.098000
     48 H16          8.5240    -2.0410     0.2360 hc         1 O6D       0.032367
     49 H17          9.2170    -0.4420    -0.0530 hc         1 O6D       0.032367
     50 H18          8.7530    -0.9110     1.5850 hc         1 O6D       0.032367
     51 H19          1.0760     4.2560    -2.7910 hc         1 O6D       0.048367
     52 H20          0.3020     4.7260    -1.2670 hc         1 O6D       0.048367
     53 H21          2.0280     5.0250    -1.5100 hc         1 O6D       0.048367
     54 H22         -0.4480    -1.0890     2.1940 h1         1 O6D       0.034367
     55 H23         -1.3280    -2.4290     2.9320 h1         1 O6D       0.034367
     56 H24         -0.8580    -2.5290     1.2270 h1         1 O6D       0.034367
     57 H25          6.9630    -2.4920     1.9230 hn         1 O6D       0.441000
     58 H26          5.2420    -2.4920     2.2030 hn         1 O6D       0.441000
     59 H4          -7.7730     1.1170    -0.2850 ha         1 O6D       0.093000
     60 C32         -1.2170    -1.8480     2.0080 c3         1 O6D       0.157900
     61 H5          -2.1220    -4.6390    -3.3930 ha         1 O6D       0.093000
@<TRIPOS>BOND
     1     1     2 ar  
     2     1    24 ar  
     3     1    30 1   
     4     2     3 ar  
     5     2    35 1   
     6     3     4 1   
     7     3    16 ar  
     8     4     5 ar  
     9     4    28 ar  
    10     5     6 ar  
    11     5    36 1   
    12     6    27 1   
    13     6    29 ar  
    14     7    28 ar  
    15     7    29 ar  
    16     7    33 1   
    17     8     9 1   
    18     8    25 1   
    19     8    33 1   
    20     8    37 1   
    21     9    22 1   
    22     9    23 1   
    23     9    34 1   
    24    10    12 ar  
    25    10    13 ar  
    26    10    59 1   
    27    11    14 ar  
    28    11    15 ar  
    29    11    61 1   
    30    12    17 ar  
    31    12    38 1   
    32    13    18 ar  
    33    13    39 1   
    34    14    19 ar  
    35    14    40 1   
    36    15    20 ar  
    37    15    41 1   
    38    16    21 ar  
    39    16    42 1   
    40    17    22 ar  
    41    17    43 1   
    42    18    22 ar  
    43    18    44 1   
    44    19    23 ar  
    45    19    45 1   
    46    20    23 ar  
    47    20    46 1   
    48    21    24 ar  
    49    21    47 1   
    50    24    26 1   
    51    25    31 1   
    52    25    32 1   
    53    26    48 1   
    54    26    49 1   
    55    26    50 1   
    56    27    51 1   
    57    27    52 1   
    58    27    53 1   
    59    30    57 1   
    60    30    58 1   
    61    34    60 1   
    62    54    60 1   
    63    55    60 1   
    64    56    60 1   
@<TRIPOS>SUBSTRUCTURE
     1 O6D         1 TEMP              0 ****  ****    0 ROOT
