@<TRIPOS>MOLECULE
O6D
   61    64     1     0     0
SMALL
abcg2


@<TRIPOS>ATOM
      1 C4           5.7050    -1.1260     0.7360 ca         1 O6D       0.273000
      2 C5           4.4570    -0.5560     0.4860 ca         1 O6D      -0.127000
      3 C6           4.3290     0.6560    -0.1880 cp         1 O6D      -0.100500
      4 C7           2.9830     1.2250    -0.4100 cp         1 O6D       0.205500
      5 C8           2.7850     2.5160    -0.8990 ca         1 O6D      -0.281000
      6 C9           1.4770     2.9370    -1.0850 ca         1 O6D       0.165300
      7 C11          0.7380     0.9570    -0.2980 ca         1 O6D       0.415300
      8 C14         -1.5630     0.6370     0.1170 c3         1 O6D       0.004300
      9 C15         -2.5030    -0.5670     0.3490 c3         1 O6D       0.306600
     10 C24         -6.6190     0.6400    -0.2830 ca         1 O6D      -0.123500
     11 C29         -2.0370    -3.8340    -2.4670 ca         1 O6D      -0.123500
     12 C23         -6.2150     0.1580     0.9520 ca         1 O6D      -0.124250
     13 C25         -5.6850     0.7430    -1.3060 ca         1 O6D      -0.124250
     14 C28         -2.5960    -4.0410    -1.2130 ca         1 O6D      -0.124250
     15 C30         -1.6030    -2.5630    -2.8120 ca         1 O6D      -0.124250
     16 C1           5.4800     1.3030    -0.6350 ca         1 O6D      -0.135000
     17 C22         -4.8940    -0.2130     1.1700 ca         1 O6D      -0.082000
     18 C26         -4.3690     0.3650    -1.0890 ca         1 O6D      -0.082000
     19 C27         -2.7160    -2.9880    -0.3180 ca         1 O6D      -0.082000
     20 C31         -1.7170    -1.5120    -1.9110 ca         1 O6D      -0.082000
     21 C2           6.7210     0.7340    -0.3910 ca         1 O6D      -0.090000
     22 C21         -3.9520    -0.1120     0.1520 ca         1 O6D      -0.051300
     23 C20         -2.2710    -1.7090    -0.6490 ca         1 O6D      -0.051300
     24 C3           6.8660    -0.4660     0.2910 ca         1 O6D      -0.140300
     25 C16         -1.6830     1.6710     1.2680 c          1 O6D       0.725000
     26 C34          8.2190    -1.0460     0.5670 c3         1 O6D      -0.035800
     27 C33          1.1580     4.2880    -1.6370 c3         1 O6D      -0.147400
     28 N12          1.9450     0.4510    -0.1100 nb         1 O6D      -0.224000
     29 N10          0.4470     2.1480    -0.7880 nb         1 O6D      -0.228000
     30 N35          5.8030    -2.2950     1.4660 nv         1 O6D      -1.073000
     31 O17         -0.7340     1.7460     2.0660 o          1 O6D      -0.702000
     32 O18         -2.7380     2.3240     1.2710 o          1 O6D      -0.702000
     33 O13         -0.2430     0.1240     0.0120 os         1 O6D      -0.434300
     34 O19         -2.4240    -1.0420     1.6690 os         1 O6D      -0.460000
     35 H1           3.5650    -1.0650     0.8280 ha         1 O6D       0.149000
     36 H2           3.6050     3.1810    -1.1250 ha         1 O6D       0.116000
     37 H3          -1.8410     1.1290    -0.8190 h1         1 O6D       0.057700
     38 H6          -6.9310     0.0710     1.7600 ha         1 O6D       0.095500
     39 H7          -5.9820     1.1120    -2.2790 ha         1 O6D       0.095500
     40 H8          -2.9440    -5.0260    -0.9280 ha         1 O6D       0.095500
     41 H9          -1.1680    -2.3820    -3.7870 ha         1 O6D       0.095500
     42 H10          5.4290     2.2350    -1.1800 ha         1 O6D       0.112000
     43 H11         -4.6070    -0.5760     2.1450 ha         1 O6D       0.118500
     44 H12         -3.6690     0.4400    -1.9110 ha         1 O6D       0.118500
     45 H13         -3.1660    -3.1710     0.6500 ha         1 O6D       0.118500
     46 H14         -1.3690    -0.5360    -2.2200 ha         1 O6D       0.118500
     47 H15          7.6120     1.2430    -0.7420 ha         1 O6D       0.098000
     48 H16          8.3540    -2.0220     0.0910 hc         1 O6D       0.032367
     49 H17          9.0080    -0.3930     0.1970 hc         1 O6D       0.032367
     50 H18          8.3810    -1.1920     1.6370 hc         1 O6D       0.032367
     51 H19          0.7560     4.1950    -2.6480 hc         1 O6D       0.048367
     52 H20          0.3980     4.7790    -1.0310 hc         1 O6D       0.048367
     53 H21          2.0390     4.9250    -1.6810 hc         1 O6D       0.048367
     54 H22         -0.4800    -0.7980     2.3800 h1         1 O6D       0.034367
     55 H23         -1.4450    -2.1210     3.0570 h1         1 O6D       0.034367
     56 H24         -0.7480    -2.2820     1.4440 h1         1 O6D       0.034367
     57 H25          6.5970    -2.8810     1.2620 hn         1 O6D       0.441000
     58 H26          4.9560    -2.8380     1.5190 hn         1 O6D       0.441000
     59 H4          -7.6490     0.9280    -0.4510 ha         1 O6D       0.093000
     60 C32         -1.2040    -1.5770     2.1430 c3         1 O6D       0.157900
     61 H5          -1.9430    -4.6540    -3.1670 ha         1 O6D       0.093000
@<TRIPOS>BOND
     1     1     2 ar  
     2     1    24 ar  
     3     1    30 1   
     4     2     3 ar  
     5     2    35 1   
     6     3     4 1   
     7     3    16 ar  
     8     4     5 ar  
     9     4    28 ar  
    10     5     6 ar  
    11     5    36 1   
    12     6    27 1   
    13     6    29 ar  
    14     7    28 ar  
    15     7    29 ar  
    16     7    33 1   
    17     8     9 1   
    18     8    25 1   
    19     8    33 1   
    20     8    37 1   
    21     9    22 1   
    22     9    23 1   
    23     9    34 1   
    24    10    12 ar  
    25    10    13 ar  
    26    10    59 1   
    27    11    14 ar  
    28    11    15 ar  
    29    11    61 1   
    30    12    17 ar  
    31    12    38 1   
    32    13    18 ar  
    33    13    39 1   
    34    14    19 ar  
    35    14    40 1   
    36    15    20 ar  
    37    15    41 1   
    38    16    21 ar  
    39    16    42 1   
    40    17    22 ar  
    41    17    43 1   
    42    18    22 ar  
    43    18    44 1   
    44    19    23 ar  
    45    19    45 1   
    46    20    23 ar  
    47    20    46 1   
    48    21    24 ar  
    49    21    47 1   
    50    24    26 1   
    51    25    31 1   
    52    25    32 1   
    53    26    48 1   
    54    26    49 1   
    55    26    50 1   
    56    27    51 1   
    57    27    52 1   
    58    27    53 1   
    59    30    57 1   
    60    30    58 1   
    61    34    60 1   
    62    54    60 1   
    63    55    60 1   
    64    56    60 1   
@<TRIPOS>SUBSTRUCTURE
     1 O6D         1 TEMP              0 ****  ****    0 ROOT
