@<TRIPOS>MOLECULE
O6E
   79    82     1     0     0
SMALL
No Charge or Current Charge


@<TRIPOS>ATOM
      1 CAH         -1.4580   162.5330    15.6480 c3         1 O6E      -0.090100
      2 CAC          0.0440   162.7640    15.3800 c3         1 O6E      -0.071400
      3 CBJ          0.4450   164.2500    15.1810 c5         1 O6E      -0.027500
      4 CBD         -0.1030   164.8950    13.8490 c5         1 O6E      -0.155700
      5 CAT         -0.5730   166.3590    14.0260 c3         1 O6E      -0.076100
      6 CAX          1.0890   164.8440    12.8700 c          1 O6E       0.563000
      7 OBQ          1.1080   164.7860    11.6510 o          1 O6E      -0.541000
      8 NBP          2.1680   164.6550    13.6770 ns         1 O6E      -0.409100
      9 CBN          1.9520   164.4090    15.0260 c2         1 O6E      -0.004600
     10 CAQ          2.8000   164.2940    16.0720 ce         1 O6E      -0.180200
     11 CAY          4.2500   164.4810    16.0540 cc         1 O6E      -0.110800
     12 NAN          4.9600   165.1040    15.0350 na         1 O6E      -0.077000
     13 CBE          5.1950   164.1020    16.9760 cd         1 O6E      -0.161300
     14 CAU          4.9220   163.3780    18.2750 c3         1 O6E      -0.008800
     15 CBK          6.4800   164.4990    16.5090 cd         1 O6E      -0.023300
     16 CAD          7.7860   164.2770    17.2410 c3         1 O6E      -0.013100
     17 CAI          8.4530   162.9310    16.8730 c3         1 O6E      -0.203400
     18 CAM          9.7070   162.7170    17.7340 c          1 O6E       0.722000
     19 OBG          9.5770   162.1560    18.8120 o          1 O6E      -0.737500
     20 OBA         10.7690   163.1620    17.3280 o          1 O6E      -0.737500
     21 CBO          6.3240   165.1150    15.2930 cc         1 O6E      -0.208800
     22 CAO          7.2910   165.7070    14.3660 ce         1 O6E       0.063800
     23 CAV          7.0940   166.3250    13.1430 cd         1 O6E      -0.009400
     24 NAE          5.8350   166.4500    12.5690 nd         1 O6E      -0.645300
     25 CBB          8.1400   166.8950    12.3410 cd         1 O6E      -0.017200
     26 CAA          9.6230   166.9590    12.6380 c3         1 O6E      -0.019200
     27 CAF         10.3620   165.6520    12.2650 c3         1 O6E      -0.202400
     28 CAL         11.8720   165.8210    12.4960 c          1 O6E       0.722000
     29 OBF         12.5500   166.2600    11.5790 o          1 O6E      -0.739500
     30 OAZ         12.3190   165.5620    13.6030 o          1 O6E      -0.739500
     31 CBH          7.4860   167.3800    11.2410 cc         1 O6E      -0.290800
     32 CAR          8.0570   168.1210    10.0560 c3         1 O6E      -0.015900
     33 CBL          6.1060   167.0700    11.4320 cc         1 O6E       0.449900
     34 CAP          5.0280   167.3770    10.5070 ce         1 O6E      -0.212600
     35 CAW          4.8650   167.1650     9.1590 cd         1 O6E       0.017600
     36 CBC          3.6690   167.4320     8.4020 cd         1 O6E      -0.020200
     37 CAS          2.3850   168.0180     8.9380 c3         1 O6E      -0.052900
     38 NAJ          5.7630   166.6230     8.2850 ns         1 O6E      -0.410100
     39 CBM          5.3060   166.5040     7.0160 c          1 O6E       0.564200
     40 OAK          5.9210   166.0420     6.0660 o          1 O6E      -0.552000
     41 CBI          3.9310   167.0430     7.0950 cc         1 O6E      -0.176200
     42 CAB          3.0290   167.0890     5.9450 ce         1 O6E      -0.150000
     43 CAG          3.3690   167.5360     4.7180 c2         1 O6E      -0.311000
     44 H1          -1.6530   161.4690    15.8260 hc         1 O6E       0.028700
     45 H2          -1.7840   163.0920    16.5330 hc         1 O6E       0.028700
     46 H3          -2.0680   162.8510    14.7940 hc         1 O6E       0.028700
     47 H4           0.3420   162.1780    14.5020 hc         1 O6E       0.052200
     48 H5           0.6040   162.3480    16.2270 hc         1 O6E       0.052200
     49 H6           0.0910   164.7970    16.0640 hc         1 O6E       0.064700
     50 H7          -0.9450   164.3580    13.4000 hc         1 O6E       0.076700
     51 H8          -1.4240   166.4180    14.7150 hc         1 O6E       0.039700
     52 H9           0.2290   166.9910    14.4270 hc         1 O6E       0.039700
     53 H10         -0.8910   166.7900    13.0680 hc         1 O6E       0.039700
     54 H11          2.3920   164.0580    17.0560 ha         1 O6E       0.189000
     55 H13          4.5540   165.5420    14.2150 hn         1 O6E       0.385000
     56 H14          5.7580   162.7310    18.5620 hc         1 O6E       0.032033
     57 H15          4.7530   164.0910    19.0900 hc         1 O6E       0.032033
     58 H16          4.0350   162.7380    18.1980 hc         1 O6E       0.032033
     59 H17          8.4830   165.0970    17.0300 hc         1 O6E       0.055700
     60 H18          7.6140   164.3100    18.3240 hc         1 O6E       0.055700
     61 H19          7.7070   162.1550    17.0840 hc         1 O6E       0.022200
     62 H20          8.7190   163.0100    15.8120 hc         1 O6E       0.022200
     63 H22          8.3260   165.6590    14.7010 ha         1 O6E       0.228000
     64 H25         10.0780   167.7910    12.0880 hc         1 O6E       0.054200
     65 H26          9.7890   167.1830    13.6990 hc         1 O6E       0.054200
     66 H27         10.1530   165.4840    11.2010 hc         1 O6E       0.023200
     67 H28          9.9540   164.8750    12.9230 hc         1 O6E       0.023200
     68 H30          8.8420   168.8190    10.3670 hc         1 O6E       0.032700
     69 H31          8.4960   167.4240     9.3330 hc         1 O6E       0.032700
     70 H32          7.2900   168.7120     9.5410 hc         1 O6E       0.032700
     71 H33          4.1460   167.7520    11.0190 ha         1 O6E       0.185000
     72 H35          2.5780   168.9430     9.4930 hc         1 O6E       0.051367
     73 H36          1.6830   168.2610     8.1320 hc         1 O6E       0.051367
     74 H37          1.8870   167.3140     9.6150 hc         1 O6E       0.051367
     75 H38          1.9940   166.8130     6.1560 ha         1 O6E       0.155000
     76 H40          2.6400   167.5880     3.9080 ha         1 O6E       0.167500
     77 H41          4.3820   167.8640     4.4850 ha         1 O6E       0.167500
     78 H43          3.0580   164.4640    13.2370 hn         1 O6E       0.353500
     79 H12          6.6940   166.3070     8.5220 hn         1 O6E       0.360500
@<TRIPOS>BOND
     1     1     2 1   
     2     1    44 1   
     3     1    45 1   
     4     1    46 1   
     5     2     3 1   
     6     2    47 1   
     7     2    48 1   
     8     3     4 1   
     9     3     9 1   
    10     3    49 1   
    11     4     5 1   
    12     4     6 1   
    13     4    50 1   
    14     5    51 1   
    15     5    52 1   
    16     5    53 1   
    17     6     7 2   
    18     6     8 1   
    19     8     9 1   
    20     8    78 1   
    21     9    10 2   
    22    10    11 1   
    23    10    54 1   
    24    11    12 1   
    25    11    13 2   
    26    12    21 1   
    27    12    55 1   
    28    13    14 1   
    29    13    15 1   
    30    14    56 1   
    31    14    57 1   
    32    14    58 1   
    33    15    16 1   
    34    15    21 2   
    35    16    17 1   
    36    16    59 1   
    37    16    60 1   
    38    17    18 1   
    39    17    61 1   
    40    17    62 1   
    41    18    19 1   
    42    18    20 1   
    43    21    22 1   
    44    22    23 2   
    45    22    63 1   
    46    23    24 1   
    47    23    25 1   
    48    24    33 2   
    49    25    26 1   
    50    25    31 2   
    51    26    27 1   
    52    26    64 1   
    53    26    65 1   
    54    27    28 1   
    55    27    66 1   
    56    27    67 1   
    57    28    29 1   
    58    28    30 1   
    59    31    32 1   
    60    31    33 1   
    61    32    68 1   
    62    32    69 1   
    63    32    70 1   
    64    33    34 1   
    65    34    35 2   
    66    34    71 1   
    67    35    36 1   
    68    35    38 1   
    69    36    37 1   
    70    36    41 2   
    71    37    72 1   
    72    37    73 1   
    73    37    74 1   
    74    38    39 1   
    75    38    79 1   
    76    39    40 2   
    77    39    41 1   
    78    41    42 1   
    79    42    43 2   
    80    42    75 1   
    81    43    76 1   
    82    43    77 1   
@<TRIPOS>SUBSTRUCTURE
     1 O6E         1 TEMP              0 ****  ****    0 ROOT
