@<TRIPOS>MOLECULE
O6E
   79    82     1     0     0
SMALL
bcc


@<TRIPOS>ATOM
      1 CAH         -1.4260   162.9310    15.7570 c3         1 O6E      -0.090100
      2 CAC          0.0710   162.9820    15.4870 c3         1 O6E      -0.071400
      3 CBJ          0.5360   164.3710    15.0370 c5         1 O6E      -0.027500
      4 CBD          0.0180   164.7620    13.6420 c5         1 O6E      -0.155700
      5 CAT         -0.6600   166.1280    13.5950 c3         1 O6E      -0.076100
      6 CAX          1.2470   164.7450    12.7610 c          1 O6E       0.705500
      7 OBQ          1.2920   164.8720    11.5580 o          1 O6E      -0.616500
      8 NBP          2.3370   164.5820    13.5690 ns         1 O6E      -0.476100
      9 CBN          2.0410   164.4430    14.9060 c2         1 O6E      -0.004600
     10 CAQ          2.8980   164.3680    15.9410 ce         1 O6E      -0.130200
     11 CAY          4.3280   164.5010    15.9470 cc         1 O6E      -0.060100
     12 NAN          5.0570   165.0690    14.9690 na         1 O6E      -0.128100
     13 CBE          5.2160   164.1040    16.9680 cd         1 O6E      -0.161300
     14 CAU          4.8390   163.3960    18.2260 c3         1 O6E      -0.008800
     15 CBK          6.5030   164.4610    16.5660 cd         1 O6E      -0.023300
     16 CAD          7.7740   164.1800    17.2930 c3         1 O6E      -0.013100
     17 CAI          8.2630   162.7520    17.0520 c3         1 O6E      -0.203400
     18 CAM          9.5870   162.3760    17.7510 c          1 O6E       0.932600
     19 OBG          9.9440   161.1870    17.6210 o          1 O6E      -0.842800
     20 OBA         10.1890   163.2740    18.3720 o          1 O6E      -0.842800
     21 CBO          6.3880   165.0780    15.3050 cc         1 O6E      -0.158100
     22 CAO          7.3650   165.6600    14.4920 ce         1 O6E       0.113800
     23 CAV          7.1440   166.2580    13.2670 cd         1 O6E      -0.009400
     24 NAE          5.9000   166.3230    12.6880 nd         1 O6E      -0.645300
     25 CBB          8.1220   166.8980    12.4270 cd         1 O6E      -0.017200
     26 CAA          9.5780   167.0640    12.7090 c3         1 O6E      -0.019200
     27 CAF         10.4430   166.0850    11.9180 c3         1 O6E      -0.202400
     28 CAL         11.9660   166.2170    12.1330 c          1 O6E       0.932600
     29 OBF         12.6750   165.4670    11.4310 o          1 O6E      -0.844800
     30 OAZ         12.3640   167.0430    12.9770 o          1 O6E      -0.844800
     31 CBH          7.4380   167.3290    11.3170 cc         1 O6E      -0.290800
     32 CAR          8.0010   168.1560    10.2090 c3         1 O6E      -0.015900
     33 CBL          6.0650   166.9280    11.5240 cc         1 O6E       0.449900
     34 CAP          4.9070   167.1450    10.6830 ce         1 O6E      -0.162600
     35 CAW          4.8260   167.0980     9.3390 cd         1 O6E       0.017600
     36 CBC          3.6270   167.3490     8.5460 cd         1 O6E      -0.020200
     37 CAS          2.3360   167.7700     9.1520 c3         1 O6E      -0.052900
     38 NAJ          5.8200   166.7640     8.4380 ns         1 O6E      -0.477100
     39 CBM          5.3540   166.7500     7.1520 c          1 O6E       0.706700
     40 OAK          6.0120   166.4520     6.1730 o          1 O6E      -0.627500
     41 CBI          3.9280   167.1570     7.2370 cc         1 O6E      -0.176200
     42 CAB          3.0340   167.3080     6.1070 ce         1 O6E      -0.100000
     43 CAG          3.3220   167.1190     4.8160 c2         1 O6E      -0.211000
     44 H1          -1.7260   161.9390    16.0940 hc         1 O6E       0.028700
     45 H2          -1.7060   163.6460    16.5320 hc         1 O6E       0.028700
     46 H3          -2.0120   163.1640    14.8670 hc         1 O6E       0.028700
     47 H4           0.3460   162.2450    14.7260 hc         1 O6E       0.052200
     48 H5           0.6090   162.7040    16.3960 hc         1 O6E       0.052200
     49 H6           0.2090   165.0990    15.7850 hc         1 O6E       0.064700
     50 H7          -0.6780   164.0140    13.2530 hc         1 O6E       0.076700
     51 H8          -1.5520   166.1210    14.2200 hc         1 O6E       0.039700
     52 H9           0.0020   166.9130    13.9640 hc         1 O6E       0.039700
     53 H10         -0.9620   166.3850    12.5800 hc         1 O6E       0.039700
     54 H11          2.4470   164.1860    16.9090 ha         1 O6E       0.139000
     55 H13          4.7560   165.5640    14.1330 hn         1 O6E       0.334700
     56 H14          4.7590   162.3170    18.0800 hc         1 O6E       0.032033
     57 H15          5.5840   163.5590    19.0050 hc         1 O6E       0.032033
     58 H16          3.8810   163.7380    18.6200 hc         1 O6E       0.032033
     59 H17          8.5470   164.8880    16.9900 hc         1 O6E       0.055700
     60 H18          7.6240   164.3400    18.3640 hc         1 O6E       0.055700
     61 H19          7.4890   162.0420    17.3610 hc         1 O6E       0.022200
     62 H20          8.3840   162.5910    15.9750 hc         1 O6E       0.022200
     63 H22          8.3800   165.6410    14.8710 ha         1 O6E       0.178000
     64 H25          9.8800   168.0870    12.4660 hc         1 O6E       0.054200
     65 H26          9.7710   166.9460    13.7770 hc         1 O6E       0.054200
     66 H27         10.2340   166.1930    10.8490 hc         1 O6E       0.023200
     67 H28         10.1460   165.0590    12.1630 hc         1 O6E       0.023200
     68 H30          8.7810   168.8180    10.5890 hc         1 O6E       0.032700
     69 H31          8.4650   167.5600     9.4190 hc         1 O6E       0.032700
     70 H32          7.2430   168.7850     9.7410 hc         1 O6E       0.032700
     71 H33          3.9750   167.3040    11.2130 ha         1 O6E       0.135000
     72 H35          2.4380   168.7330     9.6550 hc         1 O6E       0.051367
     73 H36          1.5490   167.8660     8.4080 hc         1 O6E       0.051367
     74 H37          2.0000   167.0500     9.9000 hc         1 O6E       0.051367
     75 H38          2.0210   167.6070     6.3570 ha         1 O6E       0.105000
     76 H40          2.5560   167.2650     4.0660 ha         1 O6E       0.117500
     77 H41          4.2990   166.8220     4.4680 ha         1 O6E       0.117500
     78 H43          3.2630   164.5040    13.1710 hn         1 O6E       0.353500
     79 H12          6.7330   166.4200     8.6900 hn         1 O6E       0.360500
@<TRIPOS>BOND
     1     1     2 1   
     2     1    44 1   
     3     1    45 1   
     4     1    46 1   
     5     2     3 1   
     6     2    47 1   
     7     2    48 1   
     8     3     4 1   
     9     3     9 1   
    10     3    49 1   
    11     4     5 1   
    12     4     6 1   
    13     4    50 1   
    14     5    51 1   
    15     5    52 1   
    16     5    53 1   
    17     6     7 2   
    18     6     8 1   
    19     8     9 1   
    20     8    78 1   
    21     9    10 2   
    22    10    11 1   
    23    10    54 1   
    24    11    12 1   
    25    11    13 2   
    26    12    21 1   
    27    12    55 1   
    28    13    14 1   
    29    13    15 1   
    30    14    56 1   
    31    14    57 1   
    32    14    58 1   
    33    15    16 1   
    34    15    21 2   
    35    16    17 1   
    36    16    59 1   
    37    16    60 1   
    38    17    18 1   
    39    17    61 1   
    40    17    62 1   
    41    18    19 1   
    42    18    20 1   
    43    21    22 1   
    44    22    23 2   
    45    22    63 1   
    46    23    24 1   
    47    23    25 1   
    48    24    33 2   
    49    25    26 1   
    50    25    31 2   
    51    26    27 1   
    52    26    64 1   
    53    26    65 1   
    54    27    28 1   
    55    27    66 1   
    56    27    67 1   
    57    28    29 1   
    58    28    30 1   
    59    31    32 1   
    60    31    33 1   
    61    32    68 1   
    62    32    69 1   
    63    32    70 1   
    64    33    34 1   
    65    34    35 2   
    66    34    71 1   
    67    35    36 1   
    68    35    38 1   
    69    36    37 1   
    70    36    41 2   
    71    37    72 1   
    72    37    73 1   
    73    37    74 1   
    74    38    39 1   
    75    38    79 1   
    76    39    40 2   
    77    39    41 1   
    78    41    42 1   
    79    42    43 2   
    80    42    75 1   
    81    43    76 1   
    82    43    77 1   
@<TRIPOS>SUBSTRUCTURE
     1 O6E         1 TEMP              0 ****  ****    0 ROOT
