@<TRIPOS>MOLECULE
O6F
   66    69     1     0     0
SMALL
No Charge or Current Charge


@<TRIPOS>ATOM
      1 C10        130.3350   144.5070   147.2940 cc         1 O6F      -0.109000
      2 C17        136.5960   143.8950   148.8900 c6         1 O6F      -0.040100
      3 C20        135.3890   146.1780   151.7530 ca         1 O6F       0.115100
      4 C22        137.3070   147.2020   152.9410 c3         1 O6F       0.145900
      5 C26        131.2130   147.4930   153.6430 c3         1 O6F      -0.105100
      6 C28        133.4490   145.2040   150.6300 ca         1 O6F      -0.148000
      7 C01        136.0600   141.9210   143.7980 c3         1 O6F      -0.116100
      8 C02        136.1750   141.8310   145.3290 c3         1 O6F       0.101000
      9 N03        135.4400   140.6750   145.9050 n          1 O6F      -0.412800
     10 O05        133.2910   139.9380   146.0660 o          1 O6F      -0.576100
     11 C06        133.7550   142.0520   147.1520 cc         1 O6F       0.372000
     12 N07        132.5270   142.5930   147.1420 nd         1 O6F      -0.630000
     13 C08        132.5820   143.7400   147.9070 cd         1 O6F       0.325500
     14 C09        131.5370   144.7430   147.9170 cd         1 O6F      -0.218500
     15 C11        129.4740   145.6320   147.2870 cc         1 O6F      -0.134000
     16 C12        130.0150   146.7470   147.8730 cd         1 O6F      -0.244000
     17 S13        131.6620   146.4350   148.4500 ss         1 O6F       0.178000
     18 C14        133.7950   143.7910   148.5570 cc         1 O6F      -0.113000
     19 N15        134.5640   142.7970   148.0150 na         1 O6F      -0.162500
     20 C16        135.9330   142.5350   148.5220 c6         1 O6F       0.072600
     21 C18        135.6840   144.7350   149.8040 ca         1 O6F      -0.086300
     22 C19        136.2340   145.5200   150.8320 ca         1 O6F      -0.161000
     23 C23        133.9890   145.9930   151.6710 ca         1 O6F       0.129100
     24 O24        133.1860   146.6070   152.6240 os         1 O6F      -0.341100
     25 C25        131.7750   146.3560   152.7690 c3         1 O6F       0.170300
     26 C27        131.5860   144.9700   153.4260 c3         1 O6F      -0.105100
     27 C29        134.2840   144.6470   149.6440 ca         1 O6F      -0.005000
     28 C30        136.1660   138.7610   145.4450 c3         1 O6F       0.137400
     29 C31        135.8990   137.8230   146.6410 c3         1 O6F      -0.103100
     30 C32        137.6910   138.8500   145.2100 c3         1 O6F      -0.103100
     31 C33        135.4910   138.2250   144.1620 c3         1 O6F      -0.103100
     32 H101       130.0470   143.5610   146.8430 ha         1 O6F       0.146000
     33 H171       137.5640   143.7080   149.3750 hc         1 O6F       0.061200
     34 H172       136.8100   144.4600   147.9730 hc         1 O6F       0.061200
     35 H221       137.4820   147.8610   153.8000 h1         1 O6F       0.041033
     36 H223       137.8430   146.2610   153.1200 h1         1 O6F       0.041033
     37 H222       137.7280   147.6850   152.0500 h1         1 O6F       0.041033
     38 H261       131.3700   148.4630   153.1570 hc         1 O6F       0.047867
     39 H262       130.1360   147.3620   153.7980 hc         1 O6F       0.047867
     40 H263       131.7030   147.5120   154.6230 hc         1 O6F       0.047867
     41 H281       132.3880   144.9960   150.5890 ha         1 O6F       0.136000
     42 H012       136.5670   142.8230   143.4350 hc         1 O6F       0.047033
     43 H011       136.5220   141.0570   143.3110 hc         1 O6F       0.047033
     44 H013       135.0080   141.9730   143.4930 hc         1 O6F       0.047033
     45 H021       137.2340   141.7430   145.6010 h1         1 O6F       0.051200
     46 H022       135.8050   142.7740   145.7440 h1         1 O6F       0.051200
     47 H111       128.4830   145.5990   146.8430 ha         1 O6F       0.133000
     48 H121       129.5700   147.7280   147.9920 h4         1 O6F       0.148000
     49 H161       135.8530   141.9160   149.4260 h1         1 O6F       0.069200
     50 H162       136.5550   141.9890   147.8080 h1         1 O6F       0.069200
     51 H191       137.3150   145.5900   150.9130 ha         1 O6F       0.117000
     52 H251       131.2600   146.3910   151.8000 h1         1 O6F       0.046700
     53 H271       131.9750   144.1680   152.7900 hc         1 O6F       0.047867
     54 H273       132.1030   144.9250   154.3920 hc         1 O6F       0.047867
     55 H272       130.5210   144.7730   153.5990 hc         1 O6F       0.047867
     56 H312       134.8230   137.7260   146.8260 hc         1 O6F       0.046589
     57 H311       136.3030   136.8200   146.4550 hc         1 O6F       0.046589
     58 H313       136.3640   138.2190   147.5520 hc         1 O6F       0.046589
     59 H321       138.1910   139.2710   146.0910 hc         1 O6F       0.046589
     60 H323       138.1190   137.8590   145.0150 hc         1 O6F       0.046589
     61 H322       137.9240   139.4920   144.3540 hc         1 O6F       0.046589
     62 H331       134.4060   138.1480   144.2990 hc         1 O6F       0.046589
     63 H332       135.6750   138.8890   143.3110 hc         1 O6F       0.046589
     64 H333       135.8720   137.2290   143.9060 hc         1 O6F       0.046589
     65 O21        135.8980   146.9640   152.7760 os         1 O6F      -0.325100
     66 C04        134.1070   140.8100   146.3580 c          1 O6F       0.535600
@<TRIPOS>BOND
     1     1    14 2   
     2     1    15 1   
     3     1    32 1   
     4     2    20 1   
     5     2    21 1   
     6     2    33 1   
     7     2    34 1   
     8     3    22 ar  
     9     3    23 ar  
    10     3    65 1   
    11     4    35 1   
    12     4    36 1   
    13     4    37 1   
    14     4    65 1   
    15     5    25 1   
    16     5    38 1   
    17     5    39 1   
    18     5    40 1   
    19     6    23 ar  
    20     6    27 ar  
    21     6    41 1   
    22     7     8 1   
    23     7    42 1   
    24     7    43 1   
    25     7    44 1   
    26     8     9 1   
    27     8    45 1   
    28     8    46 1   
    29     9    28 1   
    30     9    66 1   
    31    10    66 2   
    32    11    12 2   
    33    11    19 1   
    34    11    66 1   
    35    12    13 1   
    36    13    14 1   
    37    13    18 2   
    38    14    17 1   
    39    15    16 2   
    40    15    47 1   
    41    16    17 1   
    42    16    48 1   
    43    18    19 1   
    44    18    27 1   
    45    19    20 1   
    46    20    49 1   
    47    20    50 1   
    48    21    22 ar  
    49    21    27 ar  
    50    22    51 1   
    51    23    24 1   
    52    24    25 1   
    53    25    26 1   
    54    25    52 1   
    55    26    53 1   
    56    26    54 1   
    57    26    55 1   
    58    28    29 1   
    59    28    30 1   
    60    28    31 1   
    61    29    56 1   
    62    29    57 1   
    63    29    58 1   
    64    30    59 1   
    65    30    60 1   
    66    30    61 1   
    67    31    62 1   
    68    31    63 1   
    69    31    64 1   
@<TRIPOS>SUBSTRUCTURE
     1 O6F         1 TEMP              0 ****  ****    0 ROOT
