@<TRIPOS>MOLECULE
O6F
   66    69     1     0     0
SMALL
abcg2


@<TRIPOS>ATOM
      1 C10        130.3620   144.0250   147.8590 cc         1 O6F      -0.109000
      2 C17        136.7090   143.3540   149.3480 c6         1 O6F      -0.040100
      3 C20        135.4180   145.8200   151.9560 ca         1 O6F       0.115100
      4 C22        137.1890   146.5890   153.3620 c3         1 O6F       0.145900
      5 C26        131.4230   148.1030   152.7640 c3         1 O6F      -0.105100
      6 C28        133.5680   145.0870   150.5920 ca         1 O6F      -0.148000
      7 C01        135.2540   142.2510   144.0590 c3         1 O6F      -0.116100
      8 C02        135.9860   141.8640   145.3400 c3         1 O6F       0.101000
      9 N03        135.5850   140.5470   145.8680 n          1 O6F      -0.412800
     10 O05        133.9470   139.4240   147.0250 o          1 O6F      -0.576100
     11 C06        134.0560   141.7390   147.3440 cc         1 O6F       0.372000
     12 N07        132.9040   142.3250   147.0850 nd         1 O6F      -0.630000
     13 C08        132.8300   143.4210   147.9290 cd         1 O6F       0.325500
     14 C09        131.6990   144.3370   147.8670 cd         1 O6F      -0.218500
     15 C11        129.5180   145.1640   147.7510 cc         1 O6F      -0.134000
     16 C12        130.2190   146.3340   147.6660 cd         1 O6F      -0.244000
     17 S13        131.9160   146.0540   147.7040 ss         1 O6F       0.178000
     18 C14        133.9620   143.4640   148.7300 cc         1 O6F      -0.113000
     19 N15        134.7350   142.3940   148.3220 na         1 O6F      -0.162500
     20 C16        136.0090   142.0580   148.9540 c6         1 O6F       0.072600
     21 C18        135.7930   144.2340   150.1600 ca         1 O6F      -0.086300
     22 C19        136.2680   145.0040   151.2210 ca         1 O6F      -0.161000
     23 C23        134.0400   145.8600   151.6370 ca         1 O6F       0.129100
     24 O24        133.2790   146.6820   152.4060 os         1 O6F      -0.341100
     25 C25        131.8560   146.7800   152.1620 c3         1 O6F       0.170300
     26 C27        131.1260   145.5940   152.7750 c3         1 O6F      -0.105100
     27 C29        134.4340   144.2860   149.8340 ca         1 O6F      -0.005000
     28 C30        136.1970   139.2870   145.3060 c3         1 O6F       0.137400
     29 C31        136.6320   138.3770   146.4650 c3         1 O6F      -0.103100
     30 C32        137.4550   139.6130   144.4940 c3         1 O6F      -0.103100
     31 C33        135.1890   138.5790   144.3910 c3         1 O6F      -0.103100
     32 H101       130.0030   143.0100   147.9450 ha         1 O6F       0.146000
     33 H171       137.6130   143.1180   149.9100 hc         1 O6F       0.061200
     34 H172       137.0200   143.8760   148.4360 hc         1 O6F       0.061200
     35 H221       137.2790   147.2730   154.2020 h1         1 O6F       0.041033
     36 H223       137.5050   145.5880   153.6680 h1         1 O6F       0.041033
     37 H222       137.8180   146.9320   152.5380 h1         1 O6F       0.041033
     38 H261       131.9580   148.9330   152.2990 hc         1 O6F       0.047867
     39 H262       130.3530   148.2480   152.6080 hc         1 O6F       0.047867
     40 H263       131.6210   148.1150   153.8380 hc         1 O6F       0.047867
     41 H281       132.5170   145.0840   150.3560 ha         1 O6F       0.136000
     42 H012       135.5790   143.2440   143.7410 hc         1 O6F       0.047033
     43 H011       135.4560   141.5520   143.2480 hc         1 O6F       0.047033
     44 H013       134.1770   142.2790   144.2280 hc         1 O6F       0.047033
     45 H021       137.0600   141.8630   145.1860 h1         1 O6F       0.051200
     46 H022       135.7920   142.6150   146.1000 h1         1 O6F       0.051200
     47 H111       128.4390   145.1160   147.7460 ha         1 O6F       0.133000
     48 H121       129.8380   147.3400   147.5890 h4         1 O6F       0.148000
     49 H161       135.8130   141.4420   149.8360 h1         1 O6F       0.069200
     50 H162       136.6040   141.4770   148.2540 h1         1 O6F       0.069200
     51 H191       137.3200   144.9580   151.4660 ha         1 O6F       0.117000
     52 H251       131.6930   146.8090   151.0810 h1         1 O6F       0.046700
     53 H271       131.4870   144.6470   152.3740 hc         1 O6F       0.047867
     54 H273       131.2660   145.5900   153.8580 hc         1 O6F       0.047867
     55 H272       130.0580   145.6690   152.5630 hc         1 O6F       0.047867
     56 H312       135.7870   138.0330   147.0520 hc         1 O6F       0.046589
     57 H311       137.1510   137.5090   146.0560 hc         1 O6F       0.046589
     58 H313       137.3230   138.9120   147.1190 hc         1 O6F       0.046589
     59 H321       138.2230   140.0830   145.1080 hc         1 O6F       0.046589
     60 H323       137.8570   138.6710   144.1210 hc         1 O6F       0.046589
     61 H322       137.2510   140.2480   143.6330 hc         1 O6F       0.046589
     62 H331       134.2840   138.3160   144.9330 hc         1 O6F       0.046589
     63 H332       134.9220   139.2170   143.5470 hc         1 O6F       0.046589
     64 H333       135.6380   137.6650   143.9970 hc         1 O6F       0.046589
     65 O21        135.8110   146.6020   152.9950 os         1 O6F      -0.325100
     66 C04        134.5330   140.4640   146.7120 c          1 O6F       0.535600
@<TRIPOS>BOND
     1     1    14 2   
     2     1    15 1   
     3     1    32 1   
     4     2    20 1   
     5     2    21 1   
     6     2    33 1   
     7     2    34 1   
     8     3    22 ar  
     9     3    23 ar  
    10     3    65 1   
    11     4    35 1   
    12     4    36 1   
    13     4    37 1   
    14     4    65 1   
    15     5    25 1   
    16     5    38 1   
    17     5    39 1   
    18     5    40 1   
    19     6    23 ar  
    20     6    27 ar  
    21     6    41 1   
    22     7     8 1   
    23     7    42 1   
    24     7    43 1   
    25     7    44 1   
    26     8     9 1   
    27     8    45 1   
    28     8    46 1   
    29     9    28 1   
    30     9    66 1   
    31    10    66 2   
    32    11    12 2   
    33    11    19 1   
    34    11    66 1   
    35    12    13 1   
    36    13    14 1   
    37    13    18 2   
    38    14    17 1   
    39    15    16 2   
    40    15    47 1   
    41    16    17 1   
    42    16    48 1   
    43    18    19 1   
    44    18    27 1   
    45    19    20 1   
    46    20    49 1   
    47    20    50 1   
    48    21    22 ar  
    49    21    27 ar  
    50    22    51 1   
    51    23    24 1   
    52    24    25 1   
    53    25    26 1   
    54    25    52 1   
    55    26    53 1   
    56    26    54 1   
    57    26    55 1   
    58    28    29 1   
    59    28    30 1   
    60    28    31 1   
    61    29    56 1   
    62    29    57 1   
    63    29    58 1   
    64    30    59 1   
    65    30    60 1   
    66    30    61 1   
    67    31    62 1   
    68    31    63 1   
    69    31    64 1   
@<TRIPOS>SUBSTRUCTURE
     1 O6F         1 TEMP              0 ****  ****    0 ROOT
