@<TRIPOS>MOLECULE
O6G
   37    38     1     0     0
SMALL
No Charge or Current Charge


@<TRIPOS>ATOM
      1 C10         -0.0480     0.8240     0.2320 ca         1 O6G       0.200000
      2 C13          2.9090    -0.7410     0.2420 c3         1 O6G      -0.343400
      3 C15          4.4870    -2.6950    -0.2880 c3         1 O6G      -0.069400
      4 C02         -3.7110     0.0820     0.9660 cc         1 O6G      -0.062400
      5 C03         -4.5020    -0.3700    -0.0910 cd         1 O6G       0.025200
      6 C04         -5.8820    -0.7200    -0.0610 ch         1 O6G       0.297700
      7 N05         -7.0130    -1.0130    -0.0640 n1         1 O6G      -0.432000
      8 N06         -3.7250    -0.4490    -1.2710 na         1 O6G      -0.198700
      9 C07         -2.4530    -0.0440    -0.9140 ca         1 O6G      -0.021200
     10 C09         -0.1120     0.4920    -1.1490 ca         1 O6G      -0.046000
     11 C14          4.3450    -1.1650    -0.1480 c3         1 O6G      -0.045400
     12 C01         -4.1100     0.3150     2.4000 c3         1 O6G      -0.029900
     13 C08         -1.3210     0.0510    -1.7310 ca         1 O6G      -0.120000
     14 C16          5.9110    -3.1380    -0.6770 c3         1 O6G      -0.091100
     15 C19         -1.2160     0.7200     1.0190 ca         1 O6G      -0.078000
     16 C20         -2.4010     0.2810     0.4100 ca         1 O6G      -0.111800
     17 N11          1.1280     1.2630     0.8520 nu         1 O6G      -0.867100
     18 O17          3.4940     1.4990     1.5610 o          1 O6G      -0.524000
     19 O18          2.8780     1.6810    -0.8990 o          1 O6G      -0.524000
     20 S12          2.7170     1.0410     0.4090 s6         1 O6G       1.171100
     21 H1           2.1930    -1.0630    -0.5210 h1         1 O6G       0.091200
     22 H2           2.6280    -1.1720     1.2090 h1         1 O6G       0.091200
     23 H3           4.2120    -3.1730     0.6610 hc         1 O6G       0.038700
     24 H4           3.7810    -3.0580    -1.0450 hc         1 O6G       0.038700
     25 H5          -4.0410    -0.7470    -2.1880 hn         1 O6G       0.366000
     26 H6           0.7650     0.5750    -1.7810 ha         1 O6G       0.145000
     27 H7           4.6230    -0.6900    -1.0990 hc         1 O6G       0.058700
     28 H8           5.0530    -0.8060     0.6100 hc         1 O6G       0.058700
     29 H9          -3.6470     1.2290     2.7920 hc         1 O6G       0.048700
     30 H10         -5.1960     0.4250     2.5040 hc         1 O6G       0.048700
     31 H11         -3.7920    -0.5230     3.0310 hc         1 O6G       0.048700
     32 H12         -1.3680    -0.2040    -2.7870 ha         1 O6G       0.128000
     33 H13          5.9620    -4.2290    -0.7630 hc         1 O6G       0.035367
     34 H14          6.2030    -2.7030    -1.6410 hc         1 O6G       0.035367
     35 H15          6.6370    -2.8200     0.0810 hc         1 O6G       0.035367
     36 H16         -1.1990     0.9710     2.0750 ha         1 O6G       0.117000
     37 H17          1.1320     1.3680     1.8590 hn         1 O6G       0.486000
@<TRIPOS>BOND
     1     1    10 ar  
     2     1    15 ar  
     3     1    17 1   
     4     2    11 1   
     5     2    20 1   
     6     2    21 1   
     7     2    22 1   
     8     3    11 1   
     9     3    14 1   
    10     3    23 1   
    11     3    24 1   
    12     4     5 2   
    13     4    12 1   
    14     4    16 1   
    15     5     6 1   
    16     5     8 1   
    17     6     7 3   
    18     8     9 1   
    19     8    25 1   
    20     9    13 ar  
    21     9    16 ar  
    22    10    13 ar  
    23    10    26 1   
    24    11    27 1   
    25    11    28 1   
    26    12    29 1   
    27    12    30 1   
    28    12    31 1   
    29    13    32 1   
    30    14    33 1   
    31    14    34 1   
    32    14    35 1   
    33    15    16 ar  
    34    15    36 1   
    35    17    20 1   
    36    17    37 1   
    37    18    20 2   
    38    19    20 2   
@<TRIPOS>SUBSTRUCTURE
     1 O6G         1 TEMP              0 ****  ****    0 ROOT
