@<TRIPOS>MOLECULE
O6G
   37    38     1     0     0
SMALL
bcc


@<TRIPOS>ATOM
      1 C10          0.0630     1.4540    -0.0770 ca         1 O6G       0.061600
      2 C13          2.6550    -0.5200     0.4570 c3         1 O6G      -0.232600
      3 C15          3.7910    -2.7610     0.4740 c3         1 O6G      -0.069400
      4 C02         -3.0400    -0.5250     0.7560 cc         1 O6G      -0.062400
      5 C03         -4.0040    -0.5700    -0.2230 cd         1 O6G       0.025200
      6 C04         -5.2450    -1.2400    -0.1750 ch         1 O6G       0.208500
      7 N05         -6.2550    -1.7940    -0.1170 n1         1 O6G      -0.342800
      8 N06         -3.6080     0.1470    -1.3280 na         1 O6G      -0.148400
      9 C07         -2.3810     0.6690    -1.0840 ca         1 O6G      -0.021200
     10 C09         -0.3530     1.8640    -1.3610 ca         1 O6G      -0.064000
     11 C14          3.8880    -1.3050     0.0300 c3         1 O6G      -0.045400
     12 C01         -3.0710    -1.1660     2.0960 c3         1 O6G      -0.029900
     13 C08         -1.5640     1.4730    -1.8820 ca         1 O6G      -0.138000
     14 C16          5.0250    -3.5600     0.0820 c3         1 O6G      -0.091100
     15 C19         -0.7430     0.6610     0.7120 ca         1 O6G      -0.096000
     16 C20         -1.9900     0.2700     0.2120 ca         1 O6G      -0.111800
     17 N11          1.3230     1.9090     0.4050 nu         1 O6G      -0.673500
     18 O17          3.8120     1.8570     0.5180 o          1 O6G      -0.594800
     19 O18          2.6450     1.1390    -1.5880 o          1 O6G      -0.594800
     20 S12          2.7110     1.1660    -0.1360 s6         1 O6G       1.201900
     21 H1           1.7400    -0.9650     0.0580 h1         1 O6G       0.091200
     22 H2           2.5680    -0.4720     1.5440 h1         1 O6G       0.091200
     23 H3           3.6510    -2.8040     1.5580 hc         1 O6G       0.038700
     24 H4           2.9000    -3.2150     0.0310 hc         1 O6G       0.038700
     25 H5          -4.1480     0.2660    -2.1690 hn         1 O6G       0.315700
     26 H6           0.2920     2.5100    -1.9400 ha         1 O6G       0.163000
     27 H7           3.9980    -1.2630    -1.0560 hc         1 O6G       0.058700
     28 H8           4.7820    -0.8490     0.4610 hc         1 O6G       0.058700
     29 H9          -2.9560    -0.4240     2.8870 hc         1 O6G       0.048700
     30 H10         -4.0070    -1.6960     2.2710 hc         1 O6G       0.048700
     31 H11         -2.2580    -1.8850     2.2060 hc         1 O6G       0.048700
     32 H12         -1.8740     1.7900    -2.8680 ha         1 O6G       0.146000
     33 H13          4.9380    -4.6000     0.3970 hc         1 O6G       0.035367
     34 H14          5.1730    -3.5530    -0.9990 hc         1 O6G       0.035367
     35 H15          5.9240    -3.1480     0.5420 hc         1 O6G       0.035367
     36 H16         -0.4210     0.3510     1.6990 ha         1 O6G       0.135000
     37 H17          1.3570     2.0800     1.4050 hn         1 O6G       0.430800
@<TRIPOS>BOND
     1     1    10 ar  
     2     1    15 ar  
     3     1    17 1   
     4     2    11 1   
     5     2    20 1   
     6     2    21 1   
     7     2    22 1   
     8     3    11 1   
     9     3    14 1   
    10     3    23 1   
    11     3    24 1   
    12     4     5 2   
    13     4    12 1   
    14     4    16 1   
    15     5     6 1   
    16     5     8 1   
    17     6     7 3   
    18     8     9 1   
    19     8    25 1   
    20     9    13 ar  
    21     9    16 ar  
    22    10    13 ar  
    23    10    26 1   
    24    11    27 1   
    25    11    28 1   
    26    12    29 1   
    27    12    30 1   
    28    12    31 1   
    29    13    32 1   
    30    14    33 1   
    31    14    34 1   
    32    14    35 1   
    33    15    16 ar  
    34    15    36 1   
    35    17    20 1   
    36    17    37 1   
    37    18    20 2   
    38    19    20 2   
@<TRIPOS>SUBSTRUCTURE
     1 O6G         1 TEMP              0 ****  ****    0 ROOT
