@<TRIPOS>MOLECULE
O6H
   31    31     1     0     0
SMALL
No Charge or Current Charge


@<TRIPOS>ATOM
      1 N           -2.3560    -3.0900     1.5060 n8         1 O6H      -0.892800
      2 CA          -3.2890    -3.8960     2.3570 c3         1 O6H       0.043500
      3 C           -4.5750    -4.3980     1.6270 c          1 O6H       0.573900
      4 O           -4.6950    -5.5290     1.1610 o          1 O6H      -0.516100
      5 CG          -2.4380    -2.6980     4.5070 ca         1 O6H      -0.092300
      6 CB          -3.6560    -3.1400     3.6660 c3         1 O6H      -0.025100
      7 CD1         -1.7530    -3.6350     5.3330 ca         1 O6H      -0.061800
      8 CF1         -2.1890    -5.0970     5.4520 c3         1 O6H      -0.052300
      9 CD2         -1.9890    -1.3460     4.4840 ca         1 O6H      -0.061800
     10 CF2         -2.6880    -0.2640     3.6600 c3         1 O6H      -0.052300
     11 CE1         -0.6370    -3.2220     6.0850 ca         1 O6H      -0.135500
     12 CE2         -0.8710    -0.9640     5.2510 ca         1 O6H      -0.135500
     13 CZ          -0.1880    -1.8950     6.0450 ca         1 O6H      -0.066300
     14 CH           1.0160    -1.4650     6.8700 c3         1 O6H      -0.046800
     15 H1          -1.5590    -2.7920     2.0790 hn         1 O6H       0.351300
     16 H2          -1.9410    -3.6880     0.7820 hn         1 O6H       0.351300
     17 HA          -2.7400    -4.8020     2.6420 h1         1 O6H       0.046700
     18 H3          -5.4000    -3.6560     1.5470 h4         1 O6H       0.002200
     19 HB1         -4.2950    -2.2900     3.4080 hc         1 O6H       0.058200
     20 HB2         -4.3090    -3.7820     4.2680 hc         1 O6H       0.058200
     21 HF11        -1.9930    -5.6510     4.5280 hc         1 O6H       0.044867
     22 HF12        -1.6470    -5.6150     6.2520 hc         1 O6H       0.044867
     23 HF13        -3.2540    -5.1870     5.6910 hc         1 O6H       0.044867
     24 HF23        -3.6980    -0.0710     4.0400 hc         1 O6H       0.044867
     25 HF22        -2.1460     0.6880     3.6900 hc         1 O6H       0.044867
     26 HF21        -2.7710    -0.5480     2.6050 hc         1 O6H       0.044867
     27 HE1         -0.1120    -3.9400     6.7130 ha         1 O6H       0.128500
     28 HE2         -0.5300     0.0690     5.2330 ha         1 O6H       0.128500
     29 HH2          0.7070    -1.1310     7.8670 hc         1 O6H       0.042367
     30 HH3          1.7280    -2.2900     6.9980 hc         1 O6H       0.042367
     31 HH1          1.5550    -0.6390     6.3910 hc         1 O6H       0.042367
@<TRIPOS>BOND
     1     1     2 1   
     2     1    15 1   
     3     1    16 1   
     4     2     3 1   
     5     2     6 1   
     6     2    17 1   
     7     3     4 2   
     8     3    18 1   
     9     5     6 1   
    10     5     7 ar  
    11     5     9 ar  
    12     6    19 1   
    13     6    20 1   
    14     7     8 1   
    15     7    11 ar  
    16     8    21 1   
    17     8    22 1   
    18     8    23 1   
    19     9    10 1   
    20     9    12 ar  
    21    10    24 1   
    22    10    25 1   
    23    10    26 1   
    24    11    13 ar  
    25    11    27 1   
    26    12    13 ar  
    27    12    28 1   
    28    13    14 1   
    29    14    29 1   
    30    14    30 1   
    31    14    31 1   
@<TRIPOS>SUBSTRUCTURE
     1 O6H         1 TEMP              0 ****  ****    0 ROOT
