@<TRIPOS>MOLECULE
O6H
   31    31     1     0     0
SMALL
bcc


@<TRIPOS>ATOM
      1 N           -2.3630    -3.1010     1.5760 n8         1 O6H      -0.892800
      2 CA          -3.2170    -3.9330     2.3990 c3         1 O6H       0.043500
      3 C           -4.5070    -4.1720     1.6560 c          1 O6H       0.573900
      4 O           -5.1510    -5.1890     1.7050 o          1 O6H      -0.516100
      5 CG          -2.4250    -2.7470     4.5170 ca         1 O6H      -0.092300
      6 CB          -3.6090    -3.2060     3.7050 c3         1 O6H      -0.025100
      7 CD1         -1.7270    -3.6550     5.3290 ca         1 O6H      -0.061800
      8 CF1         -2.1390    -5.0960     5.4400 c3         1 O6H      -0.052300
      9 CD2         -2.0060    -1.4090     4.4680 ca         1 O6H      -0.061800
     10 CF2         -2.7350    -0.3820     3.6440 c3         1 O6H      -0.052300
     11 CE1         -0.6310    -3.2150     6.0640 ca         1 O6H      -0.135500
     12 CE2         -0.9010    -1.0090     5.2140 ca         1 O6H      -0.135500
     13 CZ          -0.1980    -1.8950     6.0200 ca         1 O6H      -0.066300
     14 CH           0.9670    -1.4370     6.8490 c3         1 O6H      -0.046800
     15 H1          -1.5490    -2.8160     2.1060 hn         1 O6H       0.351300
     16 H2          -2.0100    -3.6380     0.7940 hn         1 O6H       0.351300
     17 HA          -2.7820    -4.9080     2.6520 h1         1 O6H       0.046700
     18 H3          -4.8460    -3.2960     1.0700 h4         1 O6H       0.002200
     19 HB1         -4.2460    -2.3560     3.4510 hc         1 O6H       0.058200
     20 HB2         -4.2310    -3.8870     4.2910 hc         1 O6H       0.058200
     21 HF11        -1.9450    -5.6510     4.5210 hc         1 O6H       0.044867
     22 HF12        -1.5900    -5.5950     6.2380 hc         1 O6H       0.044867
     23 HF13        -3.2030    -5.2040     5.6550 hc         1 O6H       0.044867
     24 HF23        -3.7460    -0.2110     4.0210 hc         1 O6H       0.044867
     25 HF22        -2.2140     0.5750     3.6670 hc         1 O6H       0.044867
     26 HF21        -2.8310    -0.6880     2.6030 hc         1 O6H       0.044867
     27 HE1         -0.1050    -3.9250     6.6940 ha         1 O6H       0.128500
     28 HE2         -0.5850     0.0280     5.1660 ha         1 O6H       0.128500
     29 HH2          0.6520    -1.2040     7.8680 hc         1 O6H       0.042367
     30 HH3          1.7370    -2.2050     6.9190 hc         1 O6H       0.042367
     31 HH1          1.4250    -0.5380     6.4380 hc         1 O6H       0.042367
@<TRIPOS>BOND
     1     1     2 1   
     2     1    15 1   
     3     1    16 1   
     4     2     3 1   
     5     2     6 1   
     6     2    17 1   
     7     3     4 2   
     8     3    18 1   
     9     5     6 1   
    10     5     7 ar  
    11     5     9 ar  
    12     6    19 1   
    13     6    20 1   
    14     7     8 1   
    15     7    11 ar  
    16     8    21 1   
    17     8    22 1   
    18     8    23 1   
    19     9    10 1   
    20     9    12 ar  
    21    10    24 1   
    22    10    25 1   
    23    10    26 1   
    24    11    13 ar  
    25    11    27 1   
    26    12    13 ar  
    27    12    28 1   
    28    13    14 1   
    29    14    29 1   
    30    14    30 1   
    31    14    31 1   
@<TRIPOS>SUBSTRUCTURE
     1 O6H         1 TEMP              0 ****  ****    0 ROOT
