@<TRIPOS>MOLECULE
O6I
   36    36     1     0     0
SMALL
No Charge or Current Charge


@<TRIPOS>ATOM
      1 C11         -8.2820    -2.2900   -38.0640 c3         1 O6I       0.161800
      2 C14         -5.9650    -1.6010   -37.4640 c3         1 O6I       0.148100
      3 C02        -14.7380    -0.3060   -39.1780 ca         1 O6I       0.589900
      4 C03        -14.9710    -0.6830   -40.5030 ca         1 O6I      -0.228000
      5 C04        -13.9800    -1.4170   -41.1720 ca         1 O6I      -0.001300
      6 C05        -12.8130    -1.7250   -40.4560 ca         1 O6I      -0.214000
      7 C06        -12.6810    -1.2920   -39.1220 ca         1 O6I       0.395300
      8 C08        -11.4220    -1.6050   -38.3260 c3         1 O6I      -0.128700
      9 C09        -10.2310    -0.6970   -38.7210 c3         1 O6I      -0.070400
     10 C10         -8.9530    -0.9060   -37.8740 c3         1 O6I      -0.075400
     11 C13         -6.6540    -3.9460   -37.2590 c3         1 O6I       0.148100
     12 N01        -13.6410    -0.5830   -38.4880 nb         1 O6I      -0.747000
     13 N02        -15.6050     0.3990   -38.4480 nv         1 O6I      -1.050900
     14 N12         -7.0910    -2.5330   -37.2090 n3         1 O6I      -0.715600
     15 H1          -9.0330    -3.0590   -37.8430 h1         1 O6I       0.028200
     16 H2          -8.0100    -2.4050   -39.1230 h1         1 O6I       0.028200
     17 H3          -6.2510    -0.5630   -37.2560 h1         1 O6I       0.029867
     18 H4          -5.1110    -1.8400   -36.8160 h1         1 O6I       0.029867
     19 H5          -5.6300    -1.6680   -38.5080 h1         1 O6I       0.029867
     20 H6         -15.8990    -0.4150   -40.9970 ha         1 O6I       0.118000
     21 H7         -12.0120    -2.2930   -40.9220 ha         1 O6I       0.119000
     22 H8         -13.2070    -1.9020   -43.1440 hc         1 O6I       0.046367
     23 H9         -14.6110    -2.8660   -42.6540 hc         1 O6I       0.046367
     24 H10        -14.8220    -1.1820   -43.1630 hc         1 O6I       0.046367
     25 H11        -11.6140    -1.4980   -37.2510 hc         1 O6I       0.055200
     26 H12        -11.1540    -2.6550   -38.4850 hc         1 O6I       0.055200
     27 H13         -9.9910    -0.8500   -39.7810 hc         1 O6I       0.045200
     28 H14        -10.5440     0.3500   -38.6210 hc         1 O6I       0.045200
     29 H15         -8.2420    -0.1170   -38.1470 hc         1 O6I       0.047700
     30 H16         -9.1930    -0.7630   -36.8140 hc         1 O6I       0.047700
     31 H17         -5.8270    -4.1230   -36.5580 h1         1 O6I       0.029867
     32 H18         -7.4770    -4.6180   -36.9820 h1         1 O6I       0.029867
     33 H19         -6.3140    -4.2170   -38.2680 h1         1 O6I       0.029867
     34 H20        -15.2190     0.8010   -37.6020 hn         1 O6I       0.465000
     35 H21        -16.2970     0.9520   -38.9410 hn         1 O6I       0.465000
     36 C07        -14.1650    -1.8660   -42.6120 c3         1 O6I      -0.052800
@<TRIPOS>BOND
     1     1    10 1   
     2     1    14 1   
     3     1    15 1   
     4     1    16 1   
     5     2    14 1   
     6     2    17 1   
     7     2    18 1   
     8     2    19 1   
     9     3     4 ar  
    10     3    12 ar  
    11     3    13 1   
    12     4     5 ar  
    13     4    20 1   
    14     5     6 ar  
    15     5    36 1   
    16     6     7 ar  
    17     6    21 1   
    18     7     8 1   
    19     7    12 ar  
    20     8     9 1   
    21     8    25 1   
    22     8    26 1   
    23     9    10 1   
    24     9    27 1   
    25     9    28 1   
    26    10    29 1   
    27    10    30 1   
    28    11    14 1   
    29    11    31 1   
    30    11    32 1   
    31    11    33 1   
    32    13    34 1   
    33    13    35 1   
    34    22    36 1   
    35    23    36 1   
    36    24    36 1   
@<TRIPOS>SUBSTRUCTURE
     1 O6I         1 TEMP              0 ****  ****    0 ROOT
