@<TRIPOS>MOLECULE
O6I
   36    36     1     0     0
SMALL
abcg2


@<TRIPOS>ATOM
      1 C11         -8.2930    -2.2250   -38.0660 c3         1 O6I       0.161800
      2 C14         -6.0630    -1.5470   -37.3900 c3         1 O6I       0.148100
      3 C02        -14.5090    -0.0800   -39.2870 ca         1 O6I       0.589900
      4 C03        -14.8330    -0.5920   -40.5560 ca         1 O6I      -0.228000
      5 C04        -14.0090    -1.5420   -41.1300 ca         1 O6I      -0.001300
      6 C05        -12.8790    -1.9520   -40.4100 ca         1 O6I      -0.214000
      7 C06        -12.6220    -1.3970   -39.1660 ca         1 O6I       0.395300
      8 C08        -11.3960    -1.7770   -38.3820 c3         1 O6I      -0.128700
      9 C09        -10.3010    -0.7030   -38.4670 c3         1 O6I      -0.070400
     10 C10         -9.0710    -0.9970   -37.6050 c3         1 O6I      -0.075400
     11 C13         -6.6200    -3.8650   -37.5390 c3         1 O6I       0.148100
     12 N01        -13.4250    -0.4710   -38.6120 nb         1 O6I      -0.747000
     13 N02        -15.3410     0.8230   -38.6610 nv         1 O6I      -1.050900
     14 N12         -7.1260    -2.5330   -37.2370 n3         1 O6I      -0.715600
     15 H1          -8.9450    -3.0990   -38.0330 h1         1 O6I       0.028200
     16 H2          -7.9970    -2.0910   -39.1230 h1         1 O6I       0.028200
     17 H3          -6.4070    -0.5580   -37.0900 h1         1 O6I       0.029867
     18 H4          -5.2200    -1.8190   -36.7540 h1         1 O6I       0.029867
     19 H5          -5.7020    -1.4850   -38.4310 h1         1 O6I       0.029867
     20 H6         -15.7230    -0.2440   -41.0670 ha         1 O6I       0.118000
     21 H7         -12.2070    -2.6960   -40.8200 ha         1 O6I       0.119000
     22 H8         -13.5040    -1.8780   -43.1880 hc         1 O6I       0.046367
     23 H9         -14.3700    -3.2080   -42.4340 hc         1 O6I       0.046367
     24 H10        -15.2430    -1.7340   -42.8860 hc         1 O6I       0.046367
     25 H11        -11.6740    -1.9180   -37.3340 hc         1 O6I       0.055200
     26 H12        -11.0170    -2.7300   -38.7540 hc         1 O6I       0.055200
     27 H13         -9.9960    -0.5860   -39.5120 hc         1 O6I       0.045200
     28 H14        -10.7310     0.2530   -38.1580 hc         1 O6I       0.045200
     29 H15         -8.4220    -0.1190   -37.6240 hc         1 O6I       0.047700
     30 H16         -9.3760    -1.1430   -36.5630 hc         1 O6I       0.047700
     31 H17         -5.7810    -4.1000   -36.8810 h1         1 O6I       0.029867
     32 H18         -7.4040    -4.6060   -37.3780 h1         1 O6I       0.029867
     33 H19         -6.2690    -3.9570   -38.5820 h1         1 O6I       0.029867
     34 H20        -14.9180     1.3510   -37.9140 hn         1 O6I       0.465000
     35 H21        -15.9520     1.3630   -39.2550 hn         1 O6I       0.465000
     36 C07        -14.3050    -2.1190   -42.4850 c3         1 O6I      -0.052800
@<TRIPOS>BOND
     1     1    10 1   
     2     1    14 1   
     3     1    15 1   
     4     1    16 1   
     5     2    14 1   
     6     2    17 1   
     7     2    18 1   
     8     2    19 1   
     9     3     4 ar  
    10     3    12 ar  
    11     3    13 1   
    12     4     5 ar  
    13     4    20 1   
    14     5     6 ar  
    15     5    36 1   
    16     6     7 ar  
    17     6    21 1   
    18     7     8 1   
    19     7    12 ar  
    20     8     9 1   
    21     8    25 1   
    22     8    26 1   
    23     9    10 1   
    24     9    27 1   
    25     9    28 1   
    26    10    29 1   
    27    10    30 1   
    28    11    14 1   
    29    11    31 1   
    30    11    32 1   
    31    11    33 1   
    32    13    34 1   
    33    13    35 1   
    34    22    36 1   
    35    23    36 1   
    36    24    36 1   
@<TRIPOS>SUBSTRUCTURE
     1 O6I         1 TEMP              0 ****  ****    0 ROOT
