@<TRIPOS>MOLECULE
O6J
   40    41     1     0     0
SMALL
No Charge or Current Charge


@<TRIPOS>ATOM
      1 C10         -0.4330     1.0270     0.2630 ca         1 O6J       0.201000
      2 C15         -4.7950    -0.6090    -0.1270 cc         1 O6J       0.025200
      3 C01          6.1730    -3.8870    -0.5600 c3         1 O6J      -0.089100
      4 C02          5.8890    -2.3770    -0.4540 c3         1 O6J      -0.076400
      5 C03          4.4190    -2.0620    -0.1000 c3         1 O6J      -0.071400
      6 C04          4.1320    -0.5490     0.0060 c3         1 O6J      -0.043400
      7 C05          2.6560    -0.2540     0.3610 c3         1 O6J      -0.341400
      8 C11         -0.4360     0.6670    -1.1140 ca         1 O6J      -0.053000
      9 C12         -1.5840     0.1030    -1.7140 ca         1 O6J      -0.118000
     10 C13         -2.7160    -0.0840    -0.9140 ca         1 O6J      -0.024200
     11 C16         -6.1380    -1.0850    -0.0970 cg         1 O6J       0.296700
     12 C18         -4.0400    -0.0630     0.9090 cd         1 O6J      -0.062400
     13 C19         -4.4990     0.1500     2.3310 c3         1 O6J      -0.029900
     14 C20         -2.7230     0.2660     0.4060 ca         1 O6J      -0.109800
     15 C21         -1.6010     0.8260     1.0320 ca         1 O6J      -0.080000
     16 N09          0.6840     1.5860     0.8970 nu         1 O6J      -0.863100
     17 N14         -3.9480    -0.6100    -1.2540 na         1 O6J      -0.198700
     18 N17         -7.2370    -1.4810    -0.0990 n1         1 O6J      -0.432000
     19 O07          3.0020     2.0530     1.6470 o          1 O6J      -0.523500
     20 O08          2.4250     2.1340    -0.8280 o          1 O6J      -0.523500
     21 S06          2.2950     1.5050     0.4880 s6         1 O6J       1.168100
     22 H1           7.2260    -4.0610    -0.8120 hc         1 O6J       0.032700
     23 H2           5.9610    -4.3900     0.3910 hc         1 O6J       0.032700
     24 H3           5.5530    -4.3460    -1.3400 hc         1 O6J       0.032700
     25 H4           6.5480    -1.9430     0.3080 hc         1 O6J       0.040200
     26 H5           6.1440    -1.8980    -1.4080 hc         1 O6J       0.040200
     27 H6           3.7620    -2.4990    -0.8630 hc         1 O6J       0.039700
     28 H7           4.1660    -2.5430     0.8530 hc         1 O6J       0.039700
     29 H8           4.7880    -0.1110     0.7710 hc         1 O6J       0.058200
     30 H9           4.3840    -0.0670    -0.9480 hc         1 O6J       0.058200
     31 H10          1.9880    -0.6550    -0.4090 h1         1 O6J       0.091700
     32 H11          2.3950    -0.6920     1.3310 h1         1 O6J       0.091700
     33 H12          0.4430     0.8240    -1.7300 ha         1 O6J       0.148000
     34 H13         -1.5860    -0.1730    -2.7660 ha         1 O6J       0.128000
     35 H14         -4.2600    -0.7210     2.9520 hc         1 O6J       0.049033
     36 H15         -4.0130     1.0250     2.7780 hc         1 O6J       0.049033
     37 H16         -5.5810     0.3160     2.3850 hc         1 O6J       0.049033
     38 H17         -1.6300     1.0950     2.0840 ha         1 O6J       0.117000
     39 H18          0.6560     1.7090     1.9000 hn         1 O6J       0.486000
     40 H19         -4.2050    -0.9490    -2.1760 hn         1 O6J       0.366000
@<TRIPOS>BOND
     1     1     8 ar  
     2     1    15 ar  
     3     1    16 1   
     4     2    11 1   
     5     2    12 2   
     6     2    17 1   
     7     3     4 1   
     8     3    22 1   
     9     3    23 1   
    10     3    24 1   
    11     4     5 1   
    12     4    25 1   
    13     4    26 1   
    14     5     6 1   
    15     5    27 1   
    16     5    28 1   
    17     6     7 1   
    18     6    29 1   
    19     6    30 1   
    20     7    21 1   
    21     7    31 1   
    22     7    32 1   
    23     8     9 ar  
    24     8    33 1   
    25     9    10 ar  
    26     9    34 1   
    27    10    14 ar  
    28    10    17 1   
    29    11    18 3   
    30    12    13 1   
    31    12    14 1   
    32    13    35 1   
    33    13    36 1   
    34    13    37 1   
    35    14    15 ar  
    36    15    38 1   
    37    16    21 1   
    38    16    39 1   
    39    17    40 1   
    40    19    21 2   
    41    20    21 2   
@<TRIPOS>SUBSTRUCTURE
     1 O6J         1 TEMP              0 ****  ****    0 ROOT
