@<TRIPOS>MOLECULE
O6J
   40    41     1     0     0
SMALL
abcg2


@<TRIPOS>ATOM
      1 C10         -0.3560     1.6300    -0.0470 ca         1 O6J       0.201000
      2 C15         -4.1440    -0.8790    -0.2030 cc         1 O6J       0.025200
      3 C01          5.2410    -4.1630     0.2500 c3         1 O6J      -0.089100
      4 C02          5.1750    -2.6830    -0.0990 c3         1 O6J      -0.076400
      5 C03          3.8630    -2.0390     0.3330 c3         1 O6J      -0.071400
      6 C04          3.7890    -0.5600    -0.0300 c3         1 O6J      -0.043400
      7 C05          2.4660     0.0400     0.4270 c3         1 O6J      -0.341400
      8 C11         -0.7740     1.9240    -1.3630 ca         1 O6J      -0.053000
      9 C12         -1.9090     1.3600    -1.8970 ca         1 O6J      -0.118000
     10 C13         -2.6520     0.5020    -1.0820 ca         1 O6J      -0.024200
     11 C16         -5.3010    -1.6850    -0.1510 cg         1 O6J       0.296700
     12 C18         -3.2260    -0.6700     0.7990 cd         1 O6J      -0.062400
     13 C19         -3.2240    -1.2470     2.1690 c3         1 O6J      -0.029900
     14 C20         -2.2600     0.2160     0.2420 ca         1 O6J      -0.109800
     15 C21         -1.0870     0.7800     0.7560 ca         1 O6J      -0.080000
     16 N09          0.8110     2.2620     0.4610 nu         1 O6J      -0.863100
     17 N14         -3.8000    -0.1750    -1.3320 na         1 O6J      -0.198700
     18 N17         -6.2430    -2.3490    -0.0900 n1         1 O6J      -0.432000
     19 O07          3.2710     2.5500     0.6970 o          1 O6J      -0.523500
     20 O08          2.3170     1.8220    -1.5090 o          1 O6J      -0.523500
     21 S06          2.3120     1.7560    -0.0560 s6         1 O6J       1.168100
     22 H1           6.1890    -4.6040    -0.0590 hc         1 O6J       0.032700
     23 H2           5.1390    -4.3200     1.3260 hc         1 O6J       0.032700
     24 H3           4.4410    -4.7200    -0.2410 hc         1 O6J       0.032700
     25 H4           6.0100    -2.1560     0.3730 hc         1 O6J       0.040200
     26 H5           5.3030    -2.5540    -1.1780 hc         1 O6J       0.040200
     27 H6           3.0260    -2.5680    -0.1330 hc         1 O6J       0.039700
     28 H7           3.7380    -2.1580     1.4150 hc         1 O6J       0.039700
     29 H8           4.6200    -0.0230     0.4330 hc         1 O6J       0.058200
     30 H9           3.8920    -0.4460    -1.1110 hc         1 O6J       0.058200
     31 H10          1.6180    -0.4890    -0.0130 h1         1 O6J       0.091700
     32 H11          2.3650     0.0100     1.5140 h1         1 O6J       0.091700
     33 H12         -0.1950     2.6170    -1.9550 ha         1 O6J       0.148000
     34 H13         -2.2200     1.5890    -2.9070 ha         1 O6J       0.128000
     35 H14         -2.3530    -1.8870     2.3220 hc         1 O6J       0.049033
     36 H15         -3.1830    -0.4600     2.9240 hc         1 O6J       0.049033
     37 H16         -4.1130    -1.8470     2.3590 hc         1 O6J       0.049033
     38 H17         -0.7640     0.5610     1.7670 ha         1 O6J       0.117000
     39 H18          0.8010     2.4090     1.4660 hn         1 O6J       0.486000
     40 H19         -4.3190    -0.1690    -2.1950 hn         1 O6J       0.366000
@<TRIPOS>BOND
     1     1     8 ar  
     2     1    15 ar  
     3     1    16 1   
     4     2    11 1   
     5     2    12 2   
     6     2    17 1   
     7     3     4 1   
     8     3    22 1   
     9     3    23 1   
    10     3    24 1   
    11     4     5 1   
    12     4    25 1   
    13     4    26 1   
    14     5     6 1   
    15     5    27 1   
    16     5    28 1   
    17     6     7 1   
    18     6    29 1   
    19     6    30 1   
    20     7    21 1   
    21     7    31 1   
    22     7    32 1   
    23     8     9 ar  
    24     8    33 1   
    25     9    10 ar  
    26     9    34 1   
    27    10    14 ar  
    28    10    17 1   
    29    11    18 3   
    30    12    13 1   
    31    12    14 1   
    32    13    35 1   
    33    13    36 1   
    34    13    37 1   
    35    14    15 ar  
    36    15    38 1   
    37    16    21 1   
    38    16    39 1   
    39    17    40 1   
    40    19    21 2   
    41    20    21 2   
@<TRIPOS>SUBSTRUCTURE
     1 O6J         1 TEMP              0 ****  ****    0 ROOT
