@<TRIPOS>MOLECULE
O6K
   84    87     1     0     0
SMALL
No Charge or Current Charge


@<TRIPOS>ATOM
      1 O26         12.1810    -4.7910    21.9200 o          1 O6K      -0.546000
      2 C24         11.1410    -4.5060    21.3500 c          1 O6K       0.656100
      3 O25         10.6680    -5.0520    20.1880 os         1 O6K      -0.471100
      4 C27         11.3920    -6.0620    19.4490 c3         1 O6K       0.223000
      5 C31         11.5560    -7.3340    20.3200 c3         1 O6K      -0.111433
      6 C32         10.4840    -6.3670    18.2370 c3         1 O6K      -0.111433
      7 C33         12.7420    -5.4770    18.9620 c3         1 O6K      -0.111433
      8 N23         10.2700    -3.5100    21.7070 ns         1 O6K      -0.398100
      9 C19         10.3160    -2.5720    22.7500 cc         1 O6K      -0.041600
     10 C21          9.3030    -1.4830    22.6260 c          1 O6K       0.526200
     11 O22          8.5010    -1.4380    21.6960 o          1 O6K      -0.606000
     12 C18         11.2320    -2.6150    23.7850 cd         1 O6K      -0.144000
     13 C17         11.2250    -1.5540    24.7520 cd         1 O6K      -0.253000
     14 C16         10.3180    -0.5220    24.6370 cc         1 O6K      -0.066400
     15 N15          9.3540    -0.4750    23.6210 n          1 O6K      -0.253000
     16 C20          8.4630     0.7270    23.4460 c3         1 O6K       0.017700
     17 C22          7.9320     1.3820    24.7560 c3         1 O6K      -0.045400
     18 C29          7.1900     0.4030    25.6640 cx         1 O6K      -0.137700
     19 C34          6.0950     0.8770    26.5900 cx         1 O6K      -0.125900
     20 C30          5.7540     0.0240    25.3890 cx         1 O6K      -0.125900
     21 C36          9.1100     1.7610    22.4890 c          1 O6K       0.573100
     22 O37          9.3870     2.9070    22.8130 o          1 O6K      -0.592100
     23 N38          9.3950     1.2890    21.2250 ns         1 O6K      -0.509900
     24 C40         10.2300     1.9670    20.2190 c3         1 O6K       0.075700
     25 C42         10.8170     0.9190    19.2250 c3         1 O6K      -0.076400
     26 C45         11.5180    -0.3120    19.8670 c5         1 O6K      -0.152700
     27 C47         12.2390    -1.2080    18.8500 c          1 O6K       0.558000
     28 O48         12.0170    -1.3680    17.6610 o          1 O6K      -0.556000
     29 N49         13.3670    -1.6620    19.4760 ns         1 O6K      -0.511900
     30 C51         13.4720    -1.2880    20.8830 c5         1 O6K       0.100000
     31 C54         12.6370     0.0210    20.8940 c5         1 O6K      -0.094400
     32 C57          9.4770     3.1480    19.5190 c3         1 O6K       0.076300
     33 O40          9.2180     4.2070    20.4780 oh         1 O6K      -0.662000
     34 C35         10.2650     3.6680    18.2800 c          1 O6K       0.602100
     35 O41          9.9330     3.4240    17.1270 o          1 O6K      -0.593100
     36 N36         11.3820     4.4140    18.5820 ns         1 O6K      -0.493900
     37 C13         12.4690     4.6770    17.6440 c3         1 O6K       0.153300
     38 C14         13.3770     3.4570    17.5630 ca         1 O6K      -0.099300
     39 C28         14.2960     3.1890    18.5970 ca         1 O6K      -0.100500
     40 C26         15.0920     2.0310    18.5570 ca         1 O6K      -0.109000
     41 C25         14.9710     1.1310    17.4850 ca         1 O6K      -0.107000
     42 C23         14.0570     1.3930    16.4500 ca         1 O6K      -0.109000
     43 C15         13.2620     2.5520    16.4890 ca         1 O6K      -0.100500
     44 H1          12.3050    -7.1980    21.1070 hc         1 O6K       0.053589
     45 H2          10.6040    -7.6090    20.7890 hc         1 O6K       0.053589
     46 H3          11.8860    -8.1780    19.7030 hc         1 O6K       0.053589
     47 H4           9.5070    -6.7410    18.5660 hc         1 O6K       0.053589
     48 H5          10.3200    -5.4650    17.6360 hc         1 O6K       0.053589
     49 H6          10.9390    -7.1280    17.5910 hc         1 O6K       0.053589
     50 H7          13.4560    -5.3510    19.7830 hc         1 O6K       0.053589
     51 H8          13.2060    -6.1480    18.2290 hc         1 O6K       0.053589
     52 H9          12.5920    -4.5030    18.4810 hc         1 O6K       0.053589
     53 H10          9.5070    -3.4210    21.0470 hn         1 O6K       0.358500
     54 H11         11.9570    -3.4180    23.8790 ha         1 O6K       0.225000
     55 H12         11.9460    -1.5530    25.5680 ha         1 O6K       0.206000
     56 H13         10.2850     0.3250    25.3120 h4         1 O6K       0.218000
     57 H14          7.5600     0.3940    22.9190 h1         1 O6K       0.103700
     58 H15          8.7490     1.8600    25.3080 hc         1 O6K       0.065700
     59 H16          7.2540     2.2000    24.4760 hc         1 O6K       0.065700
     60 H17          7.8340    -0.3870    26.0460 hc         1 O6K       0.083700
     61 H18          5.8150     1.9270    26.5610 hc         1 O6K       0.074450
     62 H19          6.0290     0.4170    27.5740 hc         1 O6K       0.074450
     63 H20          5.2470     0.5040    24.5550 hc         1 O6K       0.074450
     64 H21          5.4600    -1.0090    25.5650 hc         1 O6K       0.074450
     65 H22          9.1050     0.3310    21.0410 hn         1 O6K       0.341500
     66 H23         11.0890     2.4010    20.7510 h1         1 O6K       0.081700
     67 H24         11.5460     1.4150    18.5740 hc         1 O6K       0.080700
     68 H25         10.0120     0.5700    18.5650 hc         1 O6K       0.080700
     69 H26         10.7710    -0.9430    20.3520 hc         1 O6K       0.069700
     70 H27         14.0300    -2.2190    18.9520 hn         1 O6K       0.328500
     71 H28         13.0280    -2.0540    21.5330 h1         1 O6K       0.050200
     72 H29         14.5080    -1.1180    21.2040 h1         1 O6K       0.050200
     73 H30         12.2510     0.2660    21.8900 hc         1 O6K       0.060200
     74 H31         13.2460     0.8680    20.5570 hc         1 O6K       0.060200
     75 H34         11.5280     4.6220    19.5620 hn         1 O6K       0.337500
     76 H35         13.0430     5.5450    17.9940 h1         1 O6K       0.061700
     77 H36         12.0580     4.9170    16.6550 h1         1 O6K       0.061700
     78 H37         14.3860     3.8730    19.4380 ha         1 O6K       0.110500
     79 H38         15.7960     1.8270    19.3600 ha         1 O6K       0.111000
     80 H39         15.5820     0.2320    17.4570 ha         1 O6K       0.112000
     81 H40         13.9580     0.6940    15.6230 ha         1 O6K       0.111000
     82 H41         12.5450     2.7380    15.6920 ha         1 O6K       0.110500
     83 H32          8.5260     2.7560    19.1320 h1         1 O6K       0.072700
     84 H33          9.2340     3.7830    21.3790 ho         1 O6K       0.459000
@<TRIPOS>BOND
     1     1     2 2   
     2     2     3 1   
     3     2     8 1   
     4     3     4 1   
     5     4     5 1   
     6     4     6 1   
     7     4     7 1   
     8     5    44 1   
     9     5    45 1   
    10     5    46 1   
    11     6    47 1   
    12     6    48 1   
    13     6    49 1   
    14     7    50 1   
    15     7    51 1   
    16     7    52 1   
    17     8     9 1   
    18     8    53 1   
    19     9    10 1   
    20     9    12 2   
    21    10    11 2   
    22    10    15 1   
    23    12    13 1   
    24    12    54 1   
    25    13    14 2   
    26    13    55 1   
    27    14    15 1   
    28    14    56 1   
    29    15    16 1   
    30    16    17 1   
    31    16    21 1   
    32    16    57 1   
    33    17    18 1   
    34    17    58 1   
    35    17    59 1   
    36    18    19 1   
    37    18    20 1   
    38    18    60 1   
    39    19    20 1   
    40    19    61 1   
    41    19    62 1   
    42    20    63 1   
    43    20    64 1   
    44    21    22 2   
    45    21    23 1   
    46    23    24 1   
    47    23    65 1   
    48    24    25 1   
    49    24    32 1   
    50    24    66 1   
    51    25    26 1   
    52    25    67 1   
    53    25    68 1   
    54    26    27 1   
    55    26    31 1   
    56    26    69 1   
    57    27    28 2   
    58    27    29 1   
    59    29    30 1   
    60    29    70 1   
    61    30    31 1   
    62    30    71 1   
    63    30    72 1   
    64    31    73 1   
    65    31    74 1   
    66    32    33 1   
    67    32    34 1   
    68    32    83 1   
    69    33    84 1   
    70    34    35 2   
    71    34    36 1   
    72    36    37 1   
    73    36    75 1   
    74    37    38 1   
    75    37    76 1   
    76    37    77 1   
    77    38    39 ar  
    78    38    43 ar  
    79    39    40 ar  
    80    39    78 1   
    81    40    41 ar  
    82    40    79 1   
    83    41    42 ar  
    84    41    80 1   
    85    42    43 ar  
    86    42    81 1   
    87    43    82 1   
@<TRIPOS>SUBSTRUCTURE
     1 O6K         1 TEMP              0 ****  ****    0 ROOT
