@<TRIPOS>MOLECULE
O6K
   84    87     1     0     0
SMALL
abcg2


@<TRIPOS>ATOM
      1 O26         11.9640    -4.9100    21.9470 o          1 O6K      -0.546000
      2 C24         10.8930    -4.6720    21.4220 c          1 O6K       0.656100
      3 O25         10.3740    -5.2970    20.3570 os         1 O6K      -0.471100
      4 C27         11.1000    -6.3760    19.6490 c3         1 O6K       0.223000
      5 C31         11.3350    -7.5520    20.5890 c3         1 O6K      -0.111433
      6 C32         10.1250    -6.7560    18.5430 c3         1 O6K      -0.111433
      7 C33         12.3930    -5.8260    19.0610 c3         1 O6K      -0.111433
      8 N23         10.0130    -3.7090    21.8390 ns         1 O6K      -0.398100
      9 C19         10.2360    -2.7350    22.8060 cc         1 O6K      -0.041600
     10 C21          9.3170    -1.6200    22.6940 c          1 O6K       0.526200
     11 O22          8.4210    -1.5800    21.8290 o          1 O6K      -0.606000
     12 C18         11.2200    -2.7420    23.7570 cd         1 O6K      -0.144000
     13 C17         11.3630    -1.6360    24.6220 cd         1 O6K      -0.253000
     14 C16         10.5300    -0.5720    24.5000 cc         1 O6K      -0.066400
     15 N15          9.5270    -0.5680    23.5700 n          1 O6K      -0.253000
     16 C20          8.7130     0.6540    23.3540 c3         1 O6K       0.017700
     17 C22          8.3340     1.3800    24.6370 c3         1 O6K      -0.045400
     18 C29          7.5550     0.5030    25.5870 cx         1 O6K      -0.137700
     19 C34          6.5140     1.1140    26.4830 cx         1 O6K      -0.125900
     20 C30          6.0970     0.2400    25.3260 cx         1 O6K      -0.125900
     21 C36          9.5250     1.5240    22.3810 c          1 O6K       0.573100
     22 O37         10.3400     2.3480    22.7790 o          1 O6K      -0.592100
     23 N38          9.3000     1.2410    21.0780 ns         1 O6K      -0.509900
     24 C40         10.1610     1.7030    19.9960 c3         1 O6K       0.075700
     25 C42         10.6660     0.5250    19.1600 c3         1 O6K      -0.076400
     26 C45         11.3450    -0.5550    19.9920 c5         1 O6K      -0.152700
     27 C47         11.8450    -1.7300    19.1550 c          1 O6K       0.558000
     28 O48         11.2580    -2.2490    18.2080 o          1 O6K      -0.556000
     29 N49         13.0300    -2.1190    19.6620 ns         1 O6K      -0.511900
     30 C51         13.4510    -1.3880    20.8520 c5         1 O6K       0.100000
     31 C54         12.5810    -0.1230    20.7900 c5         1 O6K      -0.094400
     32 C57          9.4010     2.7480    19.1450 c3         1 O6K       0.076300
     33 O40          8.9090     3.8030    19.9600 oh         1 O6K      -0.662000
     34 C35         10.3390     3.3420    18.0980 c          1 O6K       0.602100
     35 O41         10.4470     2.8380    16.9810 o          1 O6K      -0.593100
     36 N36         11.0610     4.3930    18.5140 ns         1 O6K      -0.493900
     37 C13         12.1340     4.9650    17.7220 c3         1 O6K       0.153300
     38 C14         13.3740     4.0950    17.6540 ca         1 O6K      -0.099300
     39 C28         13.7440     3.2670    18.7120 ca         1 O6K      -0.100500
     40 C26         14.9010     2.4980    18.6380 ca         1 O6K      -0.109000
     41 C25         15.7060     2.5500    17.5050 ca         1 O6K      -0.107000
     42 C23         15.3450     3.3760    16.4450 ca         1 O6K      -0.109000
     43 C15         14.1840     4.1390    16.5200 ca         1 O6K      -0.100500
     44 H1          12.0410    -7.2990    21.3770 hc         1 O6K       0.053589
     45 H2          10.3940    -7.8700    21.0400 hc         1 O6K       0.053589
     46 H3          11.7380    -8.3870    20.0140 hc         1 O6K       0.053589
     47 H4           9.1820    -7.1050    18.9660 hc         1 O6K       0.053589
     48 H5           9.9270    -5.8990    17.8980 hc         1 O6K       0.053589
     49 H6          10.5540    -7.5550    17.9390 hc         1 O6K       0.053589
     50 H7          13.1050    -5.5600    19.8390 hc         1 O6K       0.053589
     51 H8          12.8440    -6.5880    18.4230 hc         1 O6K       0.053589
     52 H9          12.1850    -4.9460    18.4510 hc         1 O6K       0.053589
     53 H10          9.2080    -3.5320    21.2530 hn         1 O6K       0.358500
     54 H11         11.8980    -3.5770    23.8230 ha         1 O6K       0.225000
     55 H12         12.1380    -1.6220    25.3730 ha         1 O6K       0.206000
     56 H13         10.6130     0.3070    25.1160 h4         1 O6K       0.218000
     57 H14          7.8060     0.3140    22.8630 h1         1 O6K       0.103700
     58 H15          9.2130     1.8040    25.1230 hc         1 O6K       0.065700
     59 H16          7.7160     2.2290    24.3350 hc         1 O6K       0.065700
     60 H17          8.1140    -0.3220    26.0110 hc         1 O6K       0.083700
     61 H18          6.3420     2.1800    26.3950 hc         1 O6K       0.074450
     62 H19          6.4090     0.7200    27.4850 hc         1 O6K       0.074450
     63 H20          5.6500     0.7250    24.4670 hc         1 O6K       0.074450
     64 H21          5.7060    -0.7450    25.5440 hc         1 O6K       0.074450
     65 H22          8.6620     0.4800    20.8810 hn         1 O6K       0.341500
     66 H23         10.9980     2.2130    20.4710 h1         1 O6K       0.081700
     67 H24         11.3680     0.9050    18.4170 hc         1 O6K       0.080700
     68 H25          9.8300     0.0830    18.6130 hc         1 O6K       0.080700
     69 H26         10.6070    -0.9960    20.6650 hc         1 O6K       0.069700
     70 H27         13.4810    -2.9660    19.3520 hn         1 O6K       0.328500
     71 H28         13.2480    -1.9740    21.7530 h1         1 O6K       0.050200
     72 H29         14.5170    -1.1670    20.8160 h1         1 O6K       0.050200
     73 H30         12.3390     0.2540    21.7820 hc         1 O6K       0.060200
     74 H31         13.1100     0.6620    20.2470 hc         1 O6K       0.060200
     75 H34         10.8900     4.7410    19.4450 hn         1 O6K       0.337500
     76 H35         12.3790     5.9300    18.1660 h1         1 O6K       0.061700
     77 H36         11.7730     5.1550    16.7100 h1         1 O6K       0.061700
     78 H37         13.1230     3.2140    19.5970 ha         1 O6K       0.110500
     79 H38         15.1710     1.8550    19.4670 ha         1 O6K       0.111000
     80 H39         16.6050     1.9490    17.4460 ha         1 O6K       0.112000
     81 H40         15.9600     3.4190    15.5550 ha         1 O6K       0.111000
     82 H41         13.8990     4.7710    15.6860 ha         1 O6K       0.110500
     83 H32          8.5840     2.2540    18.6100 h1         1 O6K       0.072700
     84 H33          8.4090     3.4090    20.6880 ho         1 O6K       0.459000
@<TRIPOS>BOND
     1     1     2 2   
     2     2     3 1   
     3     2     8 1   
     4     3     4 1   
     5     4     5 1   
     6     4     6 1   
     7     4     7 1   
     8     5    44 1   
     9     5    45 1   
    10     5    46 1   
    11     6    47 1   
    12     6    48 1   
    13     6    49 1   
    14     7    50 1   
    15     7    51 1   
    16     7    52 1   
    17     8     9 1   
    18     8    53 1   
    19     9    10 1   
    20     9    12 2   
    21    10    11 2   
    22    10    15 1   
    23    12    13 1   
    24    12    54 1   
    25    13    14 2   
    26    13    55 1   
    27    14    15 1   
    28    14    56 1   
    29    15    16 1   
    30    16    17 1   
    31    16    21 1   
    32    16    57 1   
    33    17    18 1   
    34    17    58 1   
    35    17    59 1   
    36    18    19 1   
    37    18    20 1   
    38    18    60 1   
    39    19    20 1   
    40    19    61 1   
    41    19    62 1   
    42    20    63 1   
    43    20    64 1   
    44    21    22 2   
    45    21    23 1   
    46    23    24 1   
    47    23    65 1   
    48    24    25 1   
    49    24    32 1   
    50    24    66 1   
    51    25    26 1   
    52    25    67 1   
    53    25    68 1   
    54    26    27 1   
    55    26    31 1   
    56    26    69 1   
    57    27    28 2   
    58    27    29 1   
    59    29    30 1   
    60    29    70 1   
    61    30    31 1   
    62    30    71 1   
    63    30    72 1   
    64    31    73 1   
    65    31    74 1   
    66    32    33 1   
    67    32    34 1   
    68    32    83 1   
    69    33    84 1   
    70    34    35 2   
    71    34    36 1   
    72    36    37 1   
    73    36    75 1   
    74    37    38 1   
    75    37    76 1   
    76    37    77 1   
    77    38    39 ar  
    78    38    43 ar  
    79    39    40 ar  
    80    39    78 1   
    81    40    41 ar  
    82    40    79 1   
    83    41    42 ar  
    84    41    80 1   
    85    42    43 ar  
    86    42    81 1   
    87    43    82 1   
@<TRIPOS>SUBSTRUCTURE
     1 O6K         1 TEMP              0 ****  ****    0 ROOT
