@<TRIPOS>MOLECULE
O6L
   53    55     1     0     0
SMALL
abcg2


@<TRIPOS>ATOM
      1 N1          20.7510    24.4750    -2.4310 ns         1 O6L      -0.498900
      2 C2          21.9220    25.2650    -4.3900 c3         1 O6L       0.038600
      3 C3          19.6710    24.3860    -1.4600 c3         1 O6L       0.109000
      4 C4          18.4020    23.7490    -2.0310 c6         1 O6L      -0.090700
      5 C5          18.6370    22.3150    -2.5100 c6         1 O6L      -0.091400
      6 C6          17.3420    21.6780    -3.0040 c6         1 O6L       0.097500
      7 C7          15.7870    20.5610    -1.5050 c          1 O6L       0.588100
      8 C8          14.7910    20.5800    -0.3240 c5         1 O6L       0.106000
      9 C9          16.3800    21.3240     1.3950 ca         1 O6L       0.144100
     10 C10         17.3960    20.4350     1.0430 ca         1 O6L      -0.162500
     11 C11         18.5920    20.4340     1.7550 ca         1 O6L      -0.068500
     12 C12         18.7680    21.3110     2.8120 ca         1 O6L       0.082000
     13 C13         17.7600    22.1960     3.1780 ca         1 O6L      -0.068500
     14 O1          20.0060    26.3580    -3.4570 o          1 O6L      -0.584100
     15 C1          20.8000    25.4230    -3.3790 c          1 O6L       0.589100
     16 N2          16.3230    21.7170    -1.9510 n          1 O6L      -0.402800
     17 O2          16.0500    19.4740    -2.0280 o          1 O6L      -0.614100
     18 O3          15.1920    21.4650     0.7460 os         1 O6L      -0.356100
     19 CL2         20.2800    21.3080     3.7010 cl         1 O6L      -0.215000
     20 C14         16.5700    22.1960     2.4700 ca         1 O6L      -0.162500
     21 C15         13.3980    21.0700    -0.7640 c5         1 O6L      -0.080400
     22 C16         12.3880    20.4240     0.2150 c5         1 O6L      -0.074900
     23 C17         13.2010    19.4090     1.0490 c5         1 O6L      -0.074900
     24 C18         14.4880    19.1900     0.2490 c5         1 O6L      -0.080400
     25 C19         16.0220    23.0810    -1.5080 c6         1 O6L       0.097500
     26 C20         17.2800    23.7770    -0.9930 c6         1 O6L      -0.091400
     27 H1          21.4190    23.7210    -2.4700 hn         1 O6L       0.316500
     28 H2          22.2770    26.2400    -4.7060 h1         1 O6L       0.085200
     29 H3          22.7430    24.6490    -4.0330 h1         1 O6L       0.085200
     30 H5          20.0350    23.7980    -0.6160 h1         1 O6L       0.060200
     31 H6          19.4480    25.3910    -1.1010 h1         1 O6L       0.060200
     32 H7          18.0860    24.3480    -2.8930 hc         1 O6L       0.068700
     33 H8          19.0380    21.7150    -1.6870 hc         1 O6L       0.052200
     34 H9          19.3700    22.2960    -3.3190 hc         1 O6L       0.052200
     35 H10         16.9600    22.2270    -3.8700 h1         1 O6L       0.062200
     36 H11         17.4940    20.6440    -3.2930 h1         1 O6L       0.062200
     37 H12         17.2870    19.7450     0.2230 ha         1 O6L       0.135000
     38 H13         19.3810    19.7500     1.4760 ha         1 O6L       0.130500
     39 H14         17.9030    22.8770     4.0050 ha         1 O6L       0.130500
     40 H15         15.7770    22.8840     2.7320 ha         1 O6L       0.135000
     41 H16         13.3490    22.1570    -0.7730 hc         1 O6L       0.065450
     42 H17         13.2250    20.7240    -1.7840 hc         1 O6L       0.065450
     43 H18         11.9160    21.1740     0.8510 hc         1 O6L       0.048950
     44 H19         11.5940    19.9270    -0.3410 hc         1 O6L       0.048950
     45 H20         13.4390    19.8270     2.0290 hc         1 O6L       0.048950
     46 H21         12.6620    18.4760     1.2140 hc         1 O6L       0.048950
     47 H22         14.3150    18.5120    -0.5840 hc         1 O6L       0.065450
     48 H23         15.3070    18.7880     0.8420 hc         1 O6L       0.065450
     49 H24         15.6320    23.6250    -2.3740 h1         1 O6L       0.062200
     50 H25         15.2570    23.0700    -0.7450 h1         1 O6L       0.062200
     51 H26         17.6160    23.2810    -0.0780 hc         1 O6L       0.052200
     52 H27         17.0290    24.8080    -0.7320 hc         1 O6L       0.052200
     53 CL1         21.2590    24.4450    -5.8650 cl         1 O6L      -0.257000
@<TRIPOS>BOND
     1     1     3 1   
     2     1    15 1   
     3     1    27 1   
     4     2    15 1   
     5     2    28 1   
     6     2    29 1   
     7     2    53 1   
     8     3     4 1   
     9     3    30 1   
    10     3    31 1   
    11     4     5 1   
    12     4    26 1   
    13     4    32 1   
    14     5     6 1   
    15     5    33 1   
    16     5    34 1   
    17     6    16 1   
    18     6    35 1   
    19     6    36 1   
    20     7     8 1   
    21     7    16 1   
    22     7    17 2   
    23     8    18 1   
    24     8    21 1   
    25     8    24 1   
    26     9    10 ar  
    27     9    18 1   
    28     9    20 ar  
    29    10    11 ar  
    30    10    37 1   
    31    11    12 ar  
    32    11    38 1   
    33    12    13 ar  
    34    12    19 1   
    35    13    20 ar  
    36    13    39 1   
    37    14    15 2   
    38    16    25 1   
    39    20    40 1   
    40    21    22 1   
    41    21    41 1   
    42    21    42 1   
    43    22    23 1   
    44    22    43 1   
    45    22    44 1   
    46    23    24 1   
    47    23    45 1   
    48    23    46 1   
    49    24    47 1   
    50    24    48 1   
    51    25    26 1   
    52    25    49 1   
    53    25    50 1   
    54    26    51 1   
    55    26    52 1   
@<TRIPOS>SUBSTRUCTURE
     1 O6L         1 TEMP              0 ****  ****    0 ROOT
