@<TRIPOS>MOLECULE
O6L
   53    55     1     0     0
SMALL
No Charge or Current Charge


@<TRIPOS>ATOM
      1 N1          20.7900    24.4860    -2.5590 ns         1 O6L      -0.498900
      2 C2          21.8830    25.3820    -4.5710 c3         1 O6L       0.038600
      3 C3          19.8030    24.3410    -1.4850 c3         1 O6L       0.109000
      4 C4          18.4340    23.7870    -1.9760 c6         1 O6L      -0.090700
      5 C5          18.5680    22.4020    -2.6710 c6         1 O6L      -0.091400
      6 C6          17.1820    21.8520    -3.0840 c6         1 O6L       0.097500
      7 C7          15.9940    20.4980    -1.3040 c          1 O6L       0.588100
      8 C8          14.8230    20.4860    -0.2220 c5         1 O6L       0.106000
      9 C9          16.2890    21.2450     1.5730 ca         1 O6L       0.144100
     10 C10         17.2420    20.2080     1.4080 ca         1 O6L      -0.162500
     11 C11         18.4960    20.2910     2.0410 ca         1 O6L      -0.068500
     12 C12         18.8080    21.3920     2.8520 ca         1 O6L       0.082000
     13 C13         17.8620    22.4100     3.0430 ca         1 O6L      -0.068500
     14 O1          19.9590    26.3940    -3.4940 o          1 O6L      -0.584100
     15 C1          20.7840    25.4900    -3.5060 c          1 O6L       0.589100
     16 N2          16.2700    21.7620    -1.9110 n          1 O6L      -0.402800
     17 O2          16.5530    19.4840    -1.7140 o          1 O6L      -0.614100
     18 O3          15.0240    21.2910     0.9960 os         1 O6L      -0.356100
     19 Cl2         20.3790    21.4920     3.6370 cl         1 O6L      -0.215000
     20 C14         16.6100    22.3280     2.4110 ca         1 O6L      -0.162500
     21 C15         13.4950    20.9740    -0.8850 c5         1 O6L      -0.080400
     22 C16         12.3780    20.5030     0.0960 c5         1 O6L      -0.074900
     23 C17         12.9840    19.2780     0.8490 c5         1 O6L      -0.074900
     24 C18         14.3640    19.0400     0.1720 c5         1 O6L      -0.080400
     25 C19         16.0680    23.0980    -1.2790 c6         1 O6L       0.097500
     26 C20         17.4170    23.6940    -0.8080 c6         1 O6L      -0.091400
     27 H1          21.5040    23.7730    -2.6570 hn         1 O6L       0.316500
     28 H2          21.8920    26.3010    -5.1680 h1         1 O6L       0.085200
     29 H3          22.8510    25.2600    -4.0730 h1         1 O6L       0.085200
     30 H5          20.2120    23.6630    -0.7240 h1         1 O6L       0.060200
     31 H6          19.6470    25.3200    -1.0110 h1         1 O6L       0.060200
     32 H7          18.0480    24.5090    -2.7100 hc         1 O6L       0.068700
     33 H8          19.0560    21.6870    -1.9950 hc         1 O6L       0.052200
     34 H9          19.2050    22.4790    -3.5620 hc         1 O6L       0.052200
     35 H10         16.7330    22.5210    -3.8330 h1         1 O6L       0.062200
     36 H11         17.3020    20.8730    -3.5700 h1         1 O6L       0.062200
     37 H12         17.0480    19.3290     0.8080 ha         1 O6L       0.135000
     38 H13         19.2270    19.4970     1.9050 ha         1 O6L       0.130500
     39 H14         18.1000    23.2600     3.6780 ha         1 O6L       0.130500
     40 H15         15.8810    23.1220     2.5580 ha         1 O6L       0.135000
     41 H16         13.4590    22.0570    -1.0440 hc         1 O6L       0.065450
     42 H17         13.3600    20.5130    -1.8710 hc         1 O6L       0.065450
     43 H18         12.1140    21.2970     0.8040 hc         1 O6L       0.048950
     44 H19         11.4590    20.2410    -0.4410 hc         1 O6L       0.048950
     45 H20         13.1050    19.5020     1.9160 hc         1 O6L       0.048950
     46 H21         12.3410    18.3930     0.7850 hc         1 O6L       0.048950
     47 H22         14.2510    18.4050    -0.7150 hc         1 O6L       0.065450
     48 H23         15.0480    18.5160     0.8450 hc         1 O6L       0.065450
     49 H24         15.6240    23.7730    -2.0260 h1         1 O6L       0.062200
     50 H25         15.3670    23.0770    -0.4410 h1         1 O6L       0.062200
     51 H26         17.8350    23.0680    -0.0080 hc         1 O6L       0.052200
     52 H27         17.2480    24.6880    -0.3720 hc         1 O6L       0.052200
     53 Cl1         21.6420    23.9680    -5.7030 cl         1 O6L      -0.257000
@<TRIPOS>BOND
     1     1     3 1   
     2     1    15 1   
     3     1    27 1   
     4     2    15 1   
     5     2    28 1   
     6     2    29 1   
     7     2    53 1   
     8     3     4 1   
     9     3    30 1   
    10     3    31 1   
    11     4     5 1   
    12     4    26 1   
    13     4    32 1   
    14     5     6 1   
    15     5    33 1   
    16     5    34 1   
    17     6    16 1   
    18     6    35 1   
    19     6    36 1   
    20     7     8 1   
    21     7    16 1   
    22     7    17 2   
    23     8    18 1   
    24     8    21 1   
    25     8    24 1   
    26     9    10 ar  
    27     9    18 1   
    28     9    20 ar  
    29    10    11 ar  
    30    10    37 1   
    31    11    12 ar  
    32    11    38 1   
    33    12    13 ar  
    34    12    19 1   
    35    13    20 ar  
    36    13    39 1   
    37    14    15 2   
    38    16    25 1   
    39    20    40 1   
    40    21    22 1   
    41    21    41 1   
    42    21    42 1   
    43    22    23 1   
    44    22    43 1   
    45    22    44 1   
    46    23    24 1   
    47    23    45 1   
    48    23    46 1   
    49    24    47 1   
    50    24    48 1   
    51    25    26 1   
    52    25    49 1   
    53    25    50 1   
    54    26    51 1   
    55    26    52 1   
@<TRIPOS>SUBSTRUCTURE
     1 O6L         1 TEMP              0 ****  ****    0 ROOT
