@<TRIPOS>MOLECULE
O6M
   36    38     1     0     0
SMALL
No Charge or Current Charge


@<TRIPOS>ATOM
      1 C10         -3.1670    -1.6640    -0.7380 ca         1 O6M      -0.040000
      2 C11         -3.4150    -2.9930    -0.2540 cg         1 O6M       0.311000
      3 C12         -2.7070    -0.6670     0.1430 ca         1 O6M       0.000000
      4 C14          3.2360    -0.9010     2.3610 cc         1 O6M      -0.106100
      5 C15          3.7860    -0.8860     1.0850 cd         1 O6M      -0.055900
      6 C16          5.0250    -1.5190     0.7870 ch         1 O6M       0.319700
      7 C2           2.9990     0.1560    -1.1830 ca         1 O6M      -0.009300
      8 C3           1.9480     0.9100    -1.7470 ca         1 O6M      -0.132000
      9 C4           0.8510     1.3300    -0.9600 ca         1 O6M      -0.042000
     10 C5           0.7730     1.0040     0.4140 ca         1 O6M       0.209000
     11 N1          -0.3060     1.3900     1.2200 nu         1 O6M      -0.891100
     12 S1          -1.8530     1.8940     0.7970 sy         1 O6M       1.158600
     13 O1          -2.5670     1.7910     2.0710 o          1 O6M      -0.522500
     14 O2          -1.6590     3.1700     0.1040 o          1 O6M      -0.522500
     15 C6          -2.4590     0.6380    -0.3330 ca         1 O6M      -0.312500
     16 C7          -2.6760     0.9440    -1.6930 ca         1 O6M       0.017000
     17 C8          -3.1360    -0.0540    -2.5680 ca         1 O6M      -0.127000
     18 C9          -3.3810    -1.3550    -2.0950 ca         1 O6M      -0.025000
     19 N2          -3.6170    -4.0700     0.1480 n1         1 O6M      -0.432000
     20 C13          1.8410     0.2610     0.9550 ca         1 O6M      -0.071200
     21 N3           2.0300    -0.1800     2.2590 na         1 O6M      -0.208700
     22 N4           6.0440    -2.0470     0.5700 n1         1 O6M      -0.465000
     23 C17          2.9070    -0.1490     0.1890 ca         1 O6M      -0.061800
     24 H1          -2.5380    -0.9080     1.1920 ha         1 O6M       0.147000
     25 H2           3.5920    -1.3420     3.2880 h4         1 O6M       0.230000
     26 H3           4.2560    -1.3810    -2.0650 hc         1 O6M       0.052700
     27 H4           4.0590     0.0460    -3.0860 hc         1 O6M       0.052700
     28 H5           5.1160     0.1230    -1.6730 hc         1 O6M       0.052700
     29 H6           1.9750     1.1770    -2.8020 ha         1 O6M       0.125000
     30 H7           0.0690     1.9150    -1.4330 ha         1 O6M       0.142000
     31 H8          -0.3790     1.0120     2.1530 hn         1 O6M       0.494000
     32 H9          -2.4920     1.9470    -2.0770 ha         1 O6M       0.149000
     33 H10         -3.3030     0.1820    -3.6170 ha         1 O6M       0.133000
     34 H11         -3.7370    -2.1200    -2.7840 ha         1 O6M       0.133000
     35 H12          1.4020     0.0030     3.0350 hn         1 O6M       0.354000
     36 C1           4.1710    -0.2880    -2.0480 c3         1 O6M      -0.053800
@<TRIPOS>BOND
     1     1     2 1   
     2     1     3 ar  
     3     1    18 ar  
     4     2    19 3   
     5     3    15 ar  
     6     3    24 1   
     7     4     5 2   
     8     4    21 1   
     9     4    25 1   
    10     5     6 1   
    11     5    23 1   
    12     6    22 3   
    13     7     8 ar  
    14     7    23 ar  
    15     7    36 1   
    16     8     9 ar  
    17     8    29 1   
    18     9    10 ar  
    19     9    30 1   
    20    10    11 1   
    21    10    20 ar  
    22    11    12 1   
    23    11    31 1   
    24    12    13 2   
    25    12    14 2   
    26    12    15 1   
    27    15    16 ar  
    28    16    17 ar  
    29    16    32 1   
    30    17    18 ar  
    31    17    33 1   
    32    18    34 1   
    33    20    21 1   
    34    20    23 ar  
    35    21    35 1   
    36    26    36 1   
    37    27    36 1   
    38    28    36 1   
@<TRIPOS>SUBSTRUCTURE
     1 O6M         1 TEMP              0 ****  ****    0 ROOT
