@<TRIPOS>MOLECULE
O6M
   36    38     1     0     0
SMALL
bcc


@<TRIPOS>ATOM
      1 C10         -2.8060    -1.8930     0.2880 ca         1 O6M      -0.040000
      2 C11         -3.4870    -2.8110     1.1440 cg         1 O6M       0.221800
      3 C12         -2.7400    -0.5480     0.6430 ca         1 O6M      -0.018000
      4 C14          1.6010    -1.7930     0.8090 cc         1 O6M      -0.056100
      5 C15          2.5920    -1.4040    -0.0610 cd         1 O6M      -0.055900
      6 C16          3.5910    -2.2630    -0.5620 ch         1 O6M       0.230500
      7 C2           3.0620     0.9330    -1.1370 ca         1 O6M      -0.009300
      8 C3           2.5520     2.2200    -1.1490 ca         1 O6M      -0.150000
      9 C4           1.4240     2.5900    -0.4080 ca         1 O6M      -0.060000
     10 C5           0.7560     1.6740     0.3790 ca         1 O6M       0.070600
     11 N1          -0.4140     2.0400     1.0870 nu         1 O6M      -0.697500
     12 S1          -1.8660     2.0150     0.2850 sy         1 O6M       1.300200
     13 O1          -2.8730     2.3540     1.2720 o          1 O6M      -0.593300
     14 O2          -1.7060     2.8000    -0.9210 o          1 O6M      -0.593300
     15 C6          -2.0810     0.3240    -0.2080 ca         1 O6M      -0.312500
     16 C7          -1.5040    -0.1140    -1.3940 ca         1 O6M      -0.001000
     17 C8          -1.5710    -1.4580    -1.7260 ca         1 O6M      -0.145000
     18 C9          -2.2170    -2.3520    -0.8890 ca         1 O6M      -0.043000
     19 N2          -4.0360    -3.5540     1.8310 n1         1 O6M      -0.342800
     20 C13          1.2630     0.3710     0.4070 ca         1 O6M      -0.071200
     21 N3           0.8150    -0.7330     1.0820 na         1 O6M      -0.158400
     22 N4           4.4060    -2.9730    -0.9680 n1         1 O6M      -0.375800
     23 C17          2.3960    -0.0050    -0.3340 ca         1 O6M      -0.061800
     24 H1          -3.1930    -0.2050     1.5640 ha         1 O6M       0.165000
     25 H2           1.4160    -2.7590     1.2490 h4         1 O6M       0.180000
     26 H3           4.0400    -0.2100    -2.6750 hc         1 O6M       0.052700
     27 H4           4.6560     1.4270    -2.4800 hc         1 O6M       0.052700
     28 H5           5.0710     0.1800    -1.3080 hc         1 O6M       0.052700
     29 H6           3.0400     2.9720    -1.7560 ha         1 O6M       0.143000
     30 H7           1.0670     3.6100    -0.4490 ha         1 O6M       0.160000
     31 H8          -0.4860     1.7620     2.0600 hn         1 O6M       0.438800
     32 H9          -1.0040     0.5790    -2.0580 ha         1 O6M       0.167000
     33 H10         -1.1190    -1.8080    -2.6420 ha         1 O6M       0.151000
     34 H11         -2.2710    -3.4010    -1.1470 ha         1 O6M       0.151000
     35 H12          0.0440    -0.7600     1.7290 hn         1 O6M       0.303700
     36 C1           4.2690     0.5640    -1.9410 c3         1 O6M      -0.053800
@<TRIPOS>BOND
     1     1     2 1   
     2     1     3 ar  
     3     1    18 ar  
     4     2    19 3   
     5     3    15 ar  
     6     3    24 1   
     7     4     5 2   
     8     4    21 1   
     9     4    25 1   
    10     5     6 1   
    11     5    23 1   
    12     6    22 3   
    13     7     8 ar  
    14     7    23 ar  
    15     7    36 1   
    16     8     9 ar  
    17     8    29 1   
    18     9    10 ar  
    19     9    30 1   
    20    10    11 1   
    21    10    20 ar  
    22    11    12 1   
    23    11    31 1   
    24    12    13 2   
    25    12    14 2   
    26    12    15 1   
    27    15    16 ar  
    28    16    17 ar  
    29    16    32 1   
    30    17    18 ar  
    31    17    33 1   
    32    18    34 1   
    33    20    21 1   
    34    20    23 ar  
    35    21    35 1   
    36    26    36 1   
    37    27    36 1   
    38    28    36 1   
@<TRIPOS>SUBSTRUCTURE
     1 O6M         1 TEMP              0 ****  ****    0 ROOT
