@<TRIPOS>MOLECULE
O6O
   46    50     1     0     0
SMALL
abcg2


@<TRIPOS>ATOM
      1 C10         20.0140    -3.9750    10.0120 ca         1 O6O       0.049100
      2 C13         22.4180    -3.8450    11.2690 c6         1 O6O       0.119600
      3 C17         19.8360    -3.2800     7.3260 ca         1 O6O      -0.097000
      4 C20         16.8440    -7.5750     8.1620 cc         1 O6O       0.416100
      5 C22         17.0710    -9.6500     9.4780 c6         1 O6O       0.190300
      6 C26         18.8020    -7.9510     9.6320 c6         1 O6O       0.190300
      7 C02         15.0140    -6.9700     6.6570 c          1 O6O       0.607900
      8 C03         15.6620    -5.6430     6.5350 ca         1 O6O      -0.206600
      9 C04         15.1310    -4.6290     5.7340 ca         1 O6O      -0.026000
     10 C05         15.7710    -3.4060     5.6460 ca         1 O6O      -0.142000
     11 C06         16.9410    -3.1770     6.3700 ca         1 O6O      -0.060000
     12 C07         17.5020    -4.1570     7.1870 cp         1 O6O      -0.058000
     13 C08         18.7450    -3.8960     7.9480 cp         1 O6O      -0.027000
     14 C09         18.8500    -4.2280     9.3010 ca         1 O6O      -0.091000
     15 C11         21.1110    -3.3860     9.3700 ca         1 O6O       0.062100
     16 C14         21.1400    -3.7370    12.0640 c6         1 O6O       0.119600
     17 C16         21.0050    -3.0320     8.0300 ca         1 O6O      -0.107000
     18 C18         16.8380    -5.3920     7.2370 ca         1 O6O       0.164100
     19 C23         16.9150    -9.5660    10.9920 c6         1 O6O       0.128600
     20 C25         18.5930    -7.9170    11.1390 c6         1 O6O       0.128600
     21 C27         15.6660    -7.8930     7.5170 cd         1 O6O      -0.510200
     22 N21         17.5600    -8.3680     8.9770 nh         1 O6O      -0.688400
     23 O12         22.2860    -3.1400    10.0250 os         1 O6O      -0.335100
     24 O15         20.0530    -4.3270    11.3340 os         1 O6O      -0.343100
     25 O19         17.4190    -6.3670     8.0040 os         1 O6O      -0.252200
     26 O24         18.1350    -9.1800    11.6190 os         1 O6O      -0.453000
     27 H1          22.6530    -4.8930    11.0640 h1         1 O6O       0.068700
     28 H2          23.2480    -3.3830    11.7990 h1         1 O6O       0.068700
     29 H3          19.7790    -3.0150     6.2780 ha         1 O6O       0.122000
     30 H4          16.1210    -9.9080     9.0230 h1         1 O6O       0.073700
     31 H5          17.7990   -10.4230     9.2190 h1         1 O6O       0.073700
     32 H6          19.5740    -8.6860     9.3850 h1         1 O6O       0.073700
     33 H7          19.1180    -6.9790     9.2710 h1         1 O6O       0.073700
     34 H8          14.2170    -4.8260     5.1910 ha         1 O6O       0.143000
     35 H9          15.3620    -2.6190     5.0270 ha         1 O6O       0.124000
     36 H10         17.4240    -2.2100     6.3150 ha         1 O6O       0.122000
     37 H11         18.0210    -4.6770     9.8290 ha         1 O6O       0.131000
     38 H12         21.2160    -4.2840    13.0010 h1         1 O6O       0.070200
     39 H13         20.9060    -2.6880    12.2700 h1         1 O6O       0.070200
     40 H14         21.8600    -2.5770     7.5460 ha         1 O6O       0.131000
     41 H15         16.1270    -8.8440    11.2390 h1         1 O6O       0.060700
     42 H16         16.6460   -10.5410    11.3970 h1         1 O6O       0.060700
     43 H17         19.5350    -7.7080    11.6450 h1         1 O6O       0.060700
     44 H18         17.8670    -7.1360    11.3940 h1         1 O6O       0.060700
     45 H19         15.2230    -8.8680     7.6390 ha         1 O6O       0.210000
     46 O01         13.9640    -7.2290     6.0370 o          1 O6O      -0.581100
@<TRIPOS>BOND
     1     1    14 ar  
     2     1    15 ar  
     3     1    24 1   
     4     2    16 1   
     5     2    23 1   
     6     2    27 1   
     7     2    28 1   
     8     3    13 ar  
     9     3    17 ar  
    10     3    29 1   
    11     4    21 2   
    12     4    22 1   
    13     4    25 1   
    14     5    19 1   
    15     5    22 1   
    16     5    30 1   
    17     5    31 1   
    18     6    20 1   
    19     6    22 1   
    20     6    32 1   
    21     6    33 1   
    22     7     8 1   
    23     7    21 1   
    24     7    46 2   
    25     8     9 ar  
    26     8    18 ar  
    27     9    10 ar  
    28     9    34 1   
    29    10    11 ar  
    30    10    35 1   
    31    11    12 ar  
    32    11    36 1   
    33    12    13 1   
    34    12    18 ar  
    35    13    14 ar  
    36    14    37 1   
    37    15    17 ar  
    38    15    23 1   
    39    16    24 1   
    40    16    38 1   
    41    16    39 1   
    42    17    40 1   
    43    18    25 1   
    44    19    26 1   
    45    19    41 1   
    46    19    42 1   
    47    20    26 1   
    48    20    43 1   
    49    20    44 1   
    50    21    45 1   
@<TRIPOS>SUBSTRUCTURE
     1 O6O         1 TEMP              0 ****  ****    0 ROOT
