@<TRIPOS>MOLECULE
O6O
   46    50     1     0     0
SMALL
No Charge or Current Charge


@<TRIPOS>ATOM
      1 C10         19.9990    -4.1010    10.0040 ca         1 O6O       0.049100
      2 C13         22.4580    -3.8730    11.2960 c6         1 O6O       0.119600
      3 C17         19.6960    -3.0520     7.4140 ca         1 O6O      -0.097000
      4 C20         16.9780    -7.6420     7.9910 cc         1 O6O       0.416100
      5 C22         16.7710    -9.4390     9.7530 c6         1 O6O       0.190300
      6 C26         18.9300    -8.1740     9.5100 c6         1 O6O       0.190300
      7 C02         15.2660    -7.1460     6.2810 c          1 O6O       0.607900
      8 C03         15.7600    -5.7560     6.3150 ca         1 O6O      -0.206600
      9 C04         15.0870    -4.7080     5.6560 ca         1 O6O      -0.026000
     10 C05         15.5870    -3.3990     5.7420 ca         1 O6O      -0.142000
     11 C06         16.7490    -3.1350     6.4870 ca         1 O6O      -0.060000
     12 C07         17.4370    -4.1740     7.1600 cp         1 O6O      -0.058000
     13 C08         18.6700    -3.8690     7.9520 cp         1 O6O      -0.027000
     14 C09         18.8380    -4.3750     9.2650 ca         1 O6O      -0.091000
     15 C11         21.0270    -3.3110     9.4340 ca         1 O6O       0.062100
     16 C14         21.1640    -4.0580    12.1180 c6         1 O6O       0.119600
     17 C16         20.8640    -2.7760     8.1470 ca         1 O6O      -0.107000
     18 C18         16.9200    -5.4960     7.0550 ca         1 O6O       0.164100
     19 C23         16.8160    -9.1110    11.2750 c6         1 O6O       0.128600
     20 C25         18.8770    -7.8840    11.0370 c6         1 O6O       0.128600
     21 C27         15.9110    -8.0310     7.2260 cd         1 O6O      -0.510200
     22 N21         17.5590    -8.4430     8.9530 nh         1 O6O      -0.688400
     23 O12         22.1900    -3.0570    10.1330 os         1 O6O      -0.335100
     24 O15         20.1240    -4.6110    11.2810 os         1 O6O      -0.343100
     25 O19         17.6750    -6.5090     7.6220 os         1 O6O      -0.252200
     26 O24         18.1800    -8.9470    11.7310 os         1 O6O      -0.453000
     27 H1          22.8250    -4.8550    10.9660 h1         1 O6O       0.068700
     28 H2          23.2400    -3.3970    11.9040 h1         1 O6O       0.068700
     29 H3          19.5910    -2.6460     6.4100 ha         1 O6O       0.122000
     30 H4          15.7170    -9.4640     9.4440 h1         1 O6O       0.073700
     31 H5          17.1750   -10.4490     9.5940 h1         1 O6O       0.073700
     32 H6          19.5710    -9.0510     9.3450 h1         1 O6O       0.073700
     33 H7          19.4270    -7.3310     9.0100 h1         1 O6O       0.073700
     34 H8          14.1820    -4.9040     5.0840 ha         1 O6O       0.143000
     35 H9          15.0700    -2.5870     5.2360 ha         1 O6O       0.124000
     36 H10         17.1170    -2.1130     6.5520 ha         1 O6O       0.122000
     37 H11         18.0540    -4.9770     9.7170 ha         1 O6O       0.131000
     38 H12         21.3380    -4.7260    12.9730 h1         1 O6O       0.070200
     39 H13         20.8320    -3.0830    12.5030 h1         1 O6O       0.070200
     40 H14         21.6480    -2.1600     7.7130 ha         1 O6O       0.131000
     41 H15         16.2560    -8.1860    11.4710 h1         1 O6O       0.060700
     42 H16         16.3400    -9.9220    11.8440 h1         1 O6O       0.060700
     43 H17         19.8970    -7.7990    11.4360 h1         1 O6O       0.060700
     44 H18         18.3600    -6.9310    11.2200 h1         1 O6O       0.060700
     45 H19         15.4600    -9.0090     7.3090 ha         1 O6O       0.210000
     46 O01         14.3490    -7.5160     5.5620 o          1 O6O      -0.581100
@<TRIPOS>BOND
     1     1    14 ar  
     2     1    15 ar  
     3     1    24 1   
     4     2    16 1   
     5     2    23 1   
     6     2    27 1   
     7     2    28 1   
     8     3    13 ar  
     9     3    17 ar  
    10     3    29 1   
    11     4    21 2   
    12     4    22 1   
    13     4    25 1   
    14     5    19 1   
    15     5    22 1   
    16     5    30 1   
    17     5    31 1   
    18     6    20 1   
    19     6    22 1   
    20     6    32 1   
    21     6    33 1   
    22     7     8 1   
    23     7    21 1   
    24     7    46 2   
    25     8     9 ar  
    26     8    18 ar  
    27     9    10 ar  
    28     9    34 1   
    29    10    11 ar  
    30    10    35 1   
    31    11    12 ar  
    32    11    36 1   
    33    12    13 1   
    34    12    18 ar  
    35    13    14 ar  
    36    14    37 1   
    37    15    17 ar  
    38    15    23 1   
    39    16    24 1   
    40    16    38 1   
    41    16    39 1   
    42    17    40 1   
    43    18    25 1   
    44    19    26 1   
    45    19    41 1   
    46    19    42 1   
    47    20    26 1   
    48    20    43 1   
    49    20    44 1   
    50    21    45 1   
@<TRIPOS>SUBSTRUCTURE
     1 O6O         1 TEMP              0 ****  ****    0 ROOT
