@<TRIPOS>MOLECULE
O6Q
   25    26     1     0     0
SMALL
abcg2


@<TRIPOS>ATOM
      1 C11          6.8180     6.0290    17.2880 c5         1 O6Q       0.119800
      2 C1           5.8420     7.7020    19.7470 ca         1 O6Q      -0.097300
      3 C2           6.6170     7.4770    20.8760 ca         1 O6Q      -0.089000
      4 C3           6.0330     7.0180    22.0520 ca         1 O6Q       0.119000
      5 C4           4.6630     6.7730    22.0990 ca         1 O6Q       0.130000
      6 C5           3.8850     6.9900    20.9650 ca         1 O6Q      -0.097000
      7 C6           4.4710     7.4520    19.7990 ca         1 O6Q      -0.073000
      8 CL7          3.8960     6.1950    23.5480 cl         1 O6Q      -0.170000
      9 CL8          7.0450     6.7520    23.4410 cl         1 O6Q      -0.173000
     10 C9           6.4780     8.2220    18.4830 c3         1 O6Q       0.271100
     11 N10          6.1690     7.3370    17.3530 n3         1 O6Q      -0.775500
     12 C12          6.7000     5.5570    15.8570 c          1 O6Q       0.576000
     13 N13          6.2320     6.5910    15.0870 ns         1 O6Q      -0.602300
     14 S14          5.9830     8.0330    15.8810 s6         1 O6Q       1.327900
     15 O15          4.6360     8.4920    15.6790 o          1 O6Q      -0.538500
     16 O16          7.0270     8.9770    15.5680 o          1 O6Q      -0.538500
     17 O17          6.9760     4.4520    15.4470 o          1 O6Q      -0.478000
     18 H23          7.8790     6.0880    17.5560 h1         1 O6Q       0.094200
     19 H24          6.3250     5.3220    17.9550 h1         1 O6Q       0.094200
     20 H18          7.6840     7.6560    20.8520 ha         1 O6Q       0.131000
     21 H19          2.8220     6.7970    21.0080 ha         1 O6Q       0.138000
     22 H20          3.8610     7.6140    18.9200 ha         1 O6Q       0.137000
     23 H22          6.0790     9.2120    18.2540 h1         1 O6Q       0.065200
     24 H21          7.5590     8.3180    18.6050 h1         1 O6Q       0.065200
     25 H25          6.0950     6.5230    14.0850 hn         1 O6Q       0.362500
@<TRIPOS>BOND
     1     1    11 1   
     2     1    12 1   
     3     1    18 1   
     4     1    19 1   
     5     2     3 ar  
     6     2     7 ar  
     7     2    10 1   
     8     3     4 ar  
     9     3    20 1   
    10     4     5 ar  
    11     4     9 1   
    12     5     6 ar  
    13     5     8 1   
    14     6     7 ar  
    15     6    21 1   
    16     7    22 1   
    17    10    11 1   
    18    10    23 1   
    19    10    24 1   
    20    11    14 1   
    21    12    13 1   
    22    12    17 2   
    23    13    14 1   
    24    13    25 1   
    25    14    15 2   
    26    14    16 2   
@<TRIPOS>SUBSTRUCTURE
     1 O6Q         1 TEMP              0 ****  ****    0 ROOT
