@<TRIPOS>MOLECULE
O6Q
   25    26     1     0     0
SMALL
No Charge or Current Charge


@<TRIPOS>ATOM
      1 C11          6.5270     6.0550    17.3830 c5         1 O6Q       0.119800
      2 C1           5.7050     7.7700    19.7190 ca         1 O6Q      -0.097300
      3 C2           6.6300     7.4700    20.7400 ca         1 O6Q      -0.089000
      4 C3           6.1920     6.9210    21.9580 ca         1 O6Q       0.119000
      5 C4           4.8190     6.6660    22.1610 ca         1 O6Q       0.130000
      6 C5           3.8950     6.9620    21.1450 ca         1 O6Q      -0.097000
      7 C6           4.3360     7.5120    19.9280 ca         1 O6Q      -0.073000
      8 Cl7          4.2350     5.9750    23.6760 cl         1 O6Q      -0.170000
      9 Cl8          7.3810     6.5580    23.2100 cl         1 O6Q      -0.173000
     10 C9           6.1750     8.3580    18.3930 c3         1 O6Q       0.271100
     11 N10          5.9530     7.4320    17.2720 n3         1 O6Q      -0.775500
     12 C12          6.7480     5.5140    15.9350 c          1 O6Q       0.576000
     13 N13          6.6680     6.5890    15.1070 ns         1 O6Q      -0.602300
     14 S14          6.2280     8.0550    15.7200 s6         1 O6Q       1.327900
     15 O15          4.9590     8.4650    15.1180 o          1 O6Q      -0.538500
     16 O16          7.4150     8.9100    15.7480 o          1 O6Q      -0.538500
     17 O17          6.9310     4.3690    15.5520 o          1 O6Q      -0.478000
     18 H23          7.5100     6.0620    17.8710 h1         1 O6Q       0.094200
     19 H24          5.8680     5.3690    17.9300 h1         1 O6Q       0.094200
     20 H18          7.6900     7.6600    20.5920 ha         1 O6Q       0.131000
     21 H19          2.8380     6.7630    21.3000 ha         1 O6Q       0.138000
     22 H20          3.6160     7.7320    19.1430 ha         1 O6Q       0.137000
     23 H22          5.6280     9.2960    18.2240 h1         1 O6Q       0.065200
     24 H21          7.2400     8.6190    18.4690 h1         1 O6Q       0.065200
     25 H25          6.5890     6.4970    14.1110 hn         1 O6Q       0.362500
@<TRIPOS>BOND
     1     1    11 1   
     2     1    12 1   
     3     1    18 1   
     4     1    19 1   
     5     2     3 ar  
     6     2     7 ar  
     7     2    10 1   
     8     3     4 ar  
     9     3    20 1   
    10     4     5 ar  
    11     4     9 1   
    12     5     6 ar  
    13     5     8 1   
    14     6     7 ar  
    15     6    21 1   
    16     7    22 1   
    17    10    11 1   
    18    10    23 1   
    19    10    24 1   
    20    11    14 1   
    21    12    13 1   
    22    12    17 2   
    23    13    14 1   
    24    13    25 1   
    25    14    15 2   
    26    14    16 2   
@<TRIPOS>SUBSTRUCTURE
     1 O6Q         1 TEMP              0 ****  ****    0 ROOT
