@<TRIPOS>MOLECULE
O6R
   45    48     1     0     0
SMALL
abcg2


@<TRIPOS>ATOM
      1 C10          0.0670    -2.7440    82.7120 c3         1 O6R      -0.059800
      2 N12         -2.7660    -0.7520    86.6120 nc         1 O6R      -0.022600
      3 C15         -4.5160    -1.6930    85.3140 c3         1 O6R       0.161300
      4 C17          4.3270    -4.1030    83.0080 c          1 O6R       0.588200
      5 C20          2.6140    -4.4610    84.4860 cc         1 O6R       0.103000
      6 C24         -4.5030    -3.7360    86.7940 ca         1 O6R      -0.063500
      7 C26         -5.5470    -5.7610    86.1050 ca         1 O6R       0.171000
      8 C28         -5.5840    -3.8760    84.6520 ca         1 O6R      -0.063500
      9 C1           3.2130    -3.4720    83.7140 cd         1 O6R      -0.410400
     10 C3           1.5760    -1.7100    84.4420 ca         1 O6R      -0.163600
     11 C5           1.8070    -1.0000    85.6300 ca         1 O6R      -0.052000
     12 C6           0.7610    -0.6050    86.4280 ca         1 O6R      -0.090000
     13 C7          -0.5450    -0.9170    86.0370 ca         1 O6R       0.114400
     14 C8          -0.7900    -1.6170    84.8400 ca         1 O6R      -0.172600
     15 C9           0.2870    -2.0210    84.0140 ca         1 O6R       0.014700
     16 C14         -2.1850    -1.9000    84.5260 c          1 O6R       0.562600
     17 C23         -4.8710    -3.1350    85.5900 ca         1 O6R      -0.125300
     18 C25         -4.8350    -5.0580    87.0600 ca         1 O6R      -0.150500
     19 C27         -5.9340    -5.1990    84.9030 ca         1 O6R      -0.150500
     20 N11         -1.5620    -0.5030    86.8850 nd         1 O6R      -0.242400
     21 N13         -3.0840    -1.4250    85.4870 n          1 O6R      -0.202800
     22 N18          4.2760    -5.4330    83.4040 n          1 O6R      -0.276200
     23 N19          3.2640    -5.6010    84.3110 na         1 O6R      -0.546200
     24 O4           3.3860    -1.2300    82.9970 o          1 O6R      -0.500100
     25 O16         -2.6160    -2.4930    83.5470 o          1 O6R      -0.518000
     26 H1          -0.3880    -3.7200    82.8790 hc         1 O6R       0.062700
     27 H2          -0.6140    -2.1850    82.0730 hc         1 O6R       0.062700
     28 H3           1.0040    -2.8870    82.1800 hc         1 O6R       0.062700
     29 H4          -4.7930    -1.4230    84.2970 h1         1 O6R       0.078200
     30 H5          -5.0230    -1.0240    86.0060 h1         1 O6R       0.078200
     31 H6           1.7620    -4.4140    85.1440 h4         1 O6R       0.231000
     32 H7           4.7230    -7.3640    82.7360 h1         1 O6R       0.056700
     33 H8           5.9120    -6.0930    82.3790 h1         1 O6R       0.056700
     34 H9           5.7870    -6.7450    84.0290 h1         1 O6R       0.056700
     35 H10         -3.9460    -3.1730    87.5320 ha         1 O6R       0.123500
     36 H11         -5.8650    -3.4210    83.7110 ha         1 O6R       0.123500
     37 H13          2.8260    -0.7730    85.9180 ha         1 O6R       0.134000
     38 H14          0.9190    -0.0640    87.3500 ha         1 O6R       0.143000
     39 H15         -4.5530    -5.5370    87.9890 ha         1 O6R       0.134000
     40 H16         -6.4870    -5.7850    84.1800 ha         1 O6R       0.134000
     41 H12          3.0430    -6.5160    84.6770 hn         1 O6R       0.542000
     42 C2           2.7960    -2.0960    83.6380 c          1 O6R       0.622900
     43 F29         -5.8750    -7.0550    86.3570 f          1 O6R      -0.183000
     44 O21          5.1680    -3.6600    82.2230 o          1 O6R      -0.524000
     45 C22          5.2290    -6.4820    83.1290 c3         1 O6R       0.100300
@<TRIPOS>BOND
     1     1    15 1   
     2     1    26 1   
     3     1    27 1   
     4     1    28 1   
     5     2    20 2   
     6     2    21 1   
     7     3    17 1   
     8     3    21 1   
     9     3    29 1   
    10     3    30 1   
    11     4     9 1   
    12     4    22 1   
    13     4    44 2   
    14     5     9 2   
    15     5    23 1   
    16     5    31 1   
    17     6    17 ar  
    18     6    18 ar  
    19     6    35 1   
    20     7    18 ar  
    21     7    19 ar  
    22     7    43 1   
    23     8    17 ar  
    24     8    19 ar  
    25     8    36 1   
    26     9    42 1   
    27    10    11 ar  
    28    10    15 ar  
    29    10    42 1   
    30    11    12 ar  
    31    11    37 1   
    32    12    13 ar  
    33    12    38 1   
    34    13    14 ar  
    35    13    20 1   
    36    14    15 ar  
    37    14    16 1   
    38    16    21 1   
    39    16    25 2   
    40    18    39 1   
    41    19    40 1   
    42    22    23 1   
    43    22    45 1   
    44    23    41 1   
    45    24    42 2   
    46    32    45 1   
    47    33    45 1   
    48    34    45 1   
@<TRIPOS>SUBSTRUCTURE
     1 O6R         1 TEMP              0 ****  ****    0 ROOT
