@<TRIPOS>MOLECULE
O6R
   45    48     1     0     0
SMALL
No Charge or Current Charge


@<TRIPOS>ATOM
      1 C10          0.2170    -2.6370    82.6490 c3         1 O6R      -0.059800
      2 N12         -2.7740    -0.9600    86.6290 nc         1 O6R      -0.022600
      3 C15         -4.5400    -1.7440    85.2050 c3         1 O6R       0.161300
      4 C17          4.4490    -4.0260    82.9380 c          1 O6R       0.588200
      5 C20          2.6070    -4.5270    84.3230 cc         1 O6R       0.103000
      6 C24         -5.3300    -3.3630    87.0010 ca         1 O6R      -0.063500
      7 C26         -5.9210    -5.6600    86.4640 ca         1 O6R       0.171000
      8 C28         -5.1780    -4.1580    84.7030 ca         1 O6R      -0.063500
      9 C1           3.3090    -3.5300    83.6750 cd         1 O6R      -0.410400
     10 C3           1.7080    -1.7590    84.5270 ca         1 O6R      -0.163600
     11 C5           1.8910    -1.1540    85.7800 ca         1 O6R      -0.052000
     12 C6           0.7900    -0.8220    86.5710 ca         1 O6R      -0.090000
     13 C7          -0.5180    -1.0880    86.1370 ca         1 O6R       0.114400
     14 C8          -0.7260    -1.6940    84.8700 ca         1 O6R      -0.172600
     15 C9           0.3980    -2.0220    84.0450 ca         1 O6R       0.014700
     16 C14         -2.1610    -1.9570    84.4790 c          1 O6R       0.562600
     17 C23         -5.0300    -3.1200    85.6450 ca         1 O6R      -0.125300
     18 C25         -5.7760    -4.6330    87.4090 ca         1 O6R      -0.150500
     19 C27         -5.6230    -5.4270    85.1130 ca         1 O6R      -0.150500
     20 N11         -1.5480    -0.7160    87.0220 nd         1 O6R      -0.242400
     21 N13         -3.0940    -1.5430    85.4350 n          1 O6R      -0.202800
     22 N18          4.3950    -5.4000    83.1380 n          1 O6R      -0.276200
     23 N19          3.2890    -5.7130    84.0150 na         1 O6R      -0.546200
     24 O4           3.5920    -1.2230    83.1990 o          1 O6R      -0.500100
     25 O16         -2.5080    -2.4880    83.4310 o          1 O6R      -0.518000
     26 H1          -0.2330    -3.6350    82.7140 hc         1 O6R       0.062700
     27 H2          -0.4290    -2.0090    82.0260 hc         1 O6R       0.062700
     28 H3           1.1490    -2.7490    82.0870 hc         1 O6R       0.062700
     29 H4          -4.7650    -1.5930    84.1410 h1         1 O6R       0.078200
     30 H5          -5.1010    -0.9730    85.7510 h1         1 O6R       0.078200
     31 H6           1.7140    -4.4930    84.9490 h4         1 O6R       0.231000
     32 H7           5.1220    -7.3710    82.8600 h1         1 O6R       0.056700
     33 H8           5.7970    -6.1510    81.7440 h1         1 O6R       0.056700
     34 H9           6.3300    -6.1910    83.4500 h1         1 O6R       0.056700
     35 H10         -5.2160    -2.5700    87.7380 ha         1 O6R       0.123500
     36 H11         -4.9450    -3.9840    83.6540 ha         1 O6R       0.123500
     37 H13          2.8960    -0.9450    86.1440 ha         1 O6R       0.134000
     38 H14          0.9520    -0.3560    87.5400 ha         1 O6R       0.143000
     39 H15         -6.0070    -4.8220    88.4540 ha         1 O6R       0.134000
     40 H16         -5.7370    -6.2280    84.3870 ha         1 O6R       0.134000
     41 H12          3.0620    -6.6950    84.2120 hn         1 O6R       0.542000
     42 C2           2.9420    -2.1050    83.7410 c          1 O6R       0.622900
     43 F29         -6.3490    -6.8790    86.8580 f          1 O6R      -0.183000
     44 O21          5.2890    -3.4140    82.2950 o          1 O6R      -0.524000
     45 C22          5.4760    -6.3360    82.7770 c3         1 O6R       0.100300
@<TRIPOS>BOND
     1     1    15 1   
     2     1    26 1   
     3     1    27 1   
     4     1    28 1   
     5     2    20 2   
     6     2    21 1   
     7     3    17 1   
     8     3    21 1   
     9     3    29 1   
    10     3    30 1   
    11     4     9 1   
    12     4    22 1   
    13     4    44 2   
    14     5     9 2   
    15     5    23 1   
    16     5    31 1   
    17     6    17 ar  
    18     6    18 ar  
    19     6    35 1   
    20     7    18 ar  
    21     7    19 ar  
    22     7    43 1   
    23     8    17 ar  
    24     8    19 ar  
    25     8    36 1   
    26     9    42 1   
    27    10    11 ar  
    28    10    15 ar  
    29    10    42 1   
    30    11    12 ar  
    31    11    37 1   
    32    12    13 ar  
    33    12    38 1   
    34    13    14 ar  
    35    13    20 1   
    36    14    15 ar  
    37    14    16 1   
    38    16    21 1   
    39    16    25 2   
    40    18    39 1   
    41    19    40 1   
    42    22    23 1   
    43    22    45 1   
    44    23    41 1   
    45    24    42 2   
    46    32    45 1   
    47    33    45 1   
    48    34    45 1   
@<TRIPOS>SUBSTRUCTURE
     1 O6R         1 TEMP              0 ****  ****    0 ROOT
