@<TRIPOS>MOLECULE
O6S
   52    56     1     0     0
SMALL
abcg2


@<TRIPOS>ATOM
      1 C02         -2.0150     1.9130     0.3240 c          1 O6S       0.597100
      2 C03         -3.1140     0.9660    -0.0620 c3         1 O6S      -0.160400
      3 C04         -4.4690     1.6600    -0.1000 c3         1 O6S       0.105000
      4 C06         -6.0500     0.8130    -1.7450 c          1 O6S       0.541000
      5 C08         -7.1510    -0.1830    -2.0330 c6         1 O6S       0.075600
      6 C10         -6.6750    -1.3440    -0.0890 ca         1 O6S       0.078100
      7 C11         -7.1040    -2.3570     0.7500 ca         1 O6S      -0.102000
      8 C12         -6.8310    -2.2910     2.1090 ca         1 O6S      -0.104000
      9 C13         -6.1470    -1.1990     2.6200 ca         1 O6S      -0.105000
     10 C14         -5.7220    -0.1800     1.7780 ca         1 O6S      -0.124000
     11 C15         -5.9760    -0.2420     0.4120 ca         1 O6S      -0.083000
     12 C17          0.3040     2.1270     0.5430 c3         1 O6S       0.124300
     13 C18          1.5340     1.2870     0.3700 cc         1 O6S       0.487900
     14 C20          2.6620    -0.5810    -0.0660 cd         1 O6S       0.056400
     15 C22          4.4830    -2.2000    -0.3680 cd         1 O6S      -0.261000
     16 C23          4.9770    -0.9650    -0.0780 cc         1 O6S       0.018000
     17 C24          6.4250    -0.7000     0.0000 ca         1 O6S      -0.027000
     18 C25          7.2380    -1.5170     0.7840 ca         1 O6S      -0.081500
     19 C26          8.6110    -1.3170     0.8260 ca         1 O6S      -0.114000
     20 C27          9.1880    -0.2970     0.0820 ca         1 O6S      -0.102000
     21 C28          8.3850     0.5190    -0.7060 ca         1 O6S      -0.114000
     22 C29          7.0130     0.3210    -0.7460 ca         1 O6S      -0.081500
     23 C30          3.9140    -0.0190     0.1050 cc         1 O6S      -0.225600
     24 C31          3.9710     1.3670     0.5030 c          1 O6S       0.598600
     25 N05         -5.5210     0.7350    -0.4930 n          1 O6S      -0.218400
     26 N19          1.4670     0.0410     0.0520 nd         1 O6S      -0.570100
     27 N33          2.7030     1.9360     0.5860 ns         1 O6S      -0.426400
     28 O01         -2.1700     3.0540     0.6750 o          1 O6S      -0.486000
     29 O09         -6.9150    -1.4320    -1.4190 os         1 O6S      -0.325100
     30 O16         -0.8200     1.3330     0.2300 os         1 O6S      -0.408100
     31 O32          4.9600     2.0270     0.7620 o          1 O6S      -0.521000
     32 S21          2.7650    -2.2560    -0.4400 ss         1 O6S       0.286000
     33 H1          -2.8810     0.5360    -1.0390 hc         1 O6S       0.090700
     34 H2          -3.1130     0.1310     0.6450 hc         1 O6S       0.090700
     35 H3          -4.7180     2.0990     0.8650 h1         1 O6S       0.078200
     36 H4          -4.4590     2.4750    -0.8170 h1         1 O6S       0.078200
     37 H5          -8.1080     0.2440    -1.7040 h1         1 O6S       0.086200
     38 H6          -7.2030    -0.3520    -3.1060 h1         1 O6S       0.086200
     39 H7          -7.6380    -3.2000     0.3300 ha         1 O6S       0.133000
     40 H8          -7.1640    -3.0850     2.7630 ha         1 O6S       0.122000
     41 H9          -5.9340    -1.1330     3.6780 ha         1 O6S       0.120000
     42 H10         -5.1890     0.6580     2.2050 ha         1 O6S       0.122000
     43 H11          0.2620     2.4940     1.5730 h1         1 O6S       0.069700
     44 H12          0.3670     3.0000    -0.1140 h1         1 O6S       0.069700
     45 H13          5.0550    -3.0920    -0.5750 h4         1 O6S       0.158000
     46 H14          6.7920    -2.3080     1.3740 ha         1 O6S       0.115000
     47 H15          9.2280    -1.9560     1.4440 ha         1 O6S       0.112500
     48 H16         10.2580    -0.1380     0.1140 ha         1 O6S       0.111000
     49 H17          8.8290     1.3120    -1.2930 ha         1 O6S       0.112500
     50 H18          6.3990     0.9520    -1.3740 ha         1 O6S       0.115000
     51 H19          2.6760     2.9150     0.8470 hn         1 O6S       0.330500
     52 O07         -5.7070     1.6350    -2.5720 o          1 O6S      -0.527000
@<TRIPOS>BOND
     1     1     2 1   
     2     1    28 2   
     3     1    30 1   
     4     2     3 1   
     5     2    33 1   
     6     2    34 1   
     7     3    25 1   
     8     3    35 1   
     9     3    36 1   
    10     4     5 1   
    11     4    25 1   
    12     4    52 2   
    13     5    29 1   
    14     5    37 1   
    15     5    38 1   
    16     6     7 ar  
    17     6    11 ar  
    18     6    29 1   
    19     7     8 ar  
    20     7    39 1   
    21     8     9 ar  
    22     8    40 1   
    23     9    10 ar  
    24     9    41 1   
    25    10    11 ar  
    26    10    42 1   
    27    11    25 1   
    28    12    13 1   
    29    12    30 1   
    30    12    43 1   
    31    12    44 1   
    32    13    26 2   
    33    13    27 1   
    34    14    23 2   
    35    14    26 1   
    36    14    32 1   
    37    15    16 2   
    38    15    32 1   
    39    15    45 1   
    40    16    17 1   
    41    16    23 1   
    42    17    18 ar  
    43    17    22 ar  
    44    18    19 ar  
    45    18    46 1   
    46    19    20 ar  
    47    19    47 1   
    48    20    21 ar  
    49    20    48 1   
    50    21    22 ar  
    51    21    49 1   
    52    22    50 1   
    53    23    24 1   
    54    24    27 1   
    55    24    31 2   
    56    27    51 1   
@<TRIPOS>SUBSTRUCTURE
     1 O6S         1 TEMP              0 ****  ****    0 ROOT
