@<TRIPOS>MOLECULE
O6S
   52    56     1     0     0
SMALL
No Charge or Current Charge


@<TRIPOS>ATOM
      1 C02         -2.0680     0.3030     2.5070 c          1 O6S       0.597100
      2 C03         -2.9660    -0.1910     1.3820 c3         1 O6S      -0.160400
      3 C04         -3.4450     0.9950     0.5190 c3         1 O6S       0.105000
      4 C06         -3.7370     0.4650    -1.9010 c          1 O6S       0.541000
      5 C08         -4.7350     0.1620    -3.0280 c6         1 O6S       0.075600
      6 C10         -6.2900    -0.6810    -1.4040 ca         1 O6S       0.078100
      7 C11         -7.5740    -1.2150    -1.2080 ca         1 O6S      -0.102000
      8 C12         -8.2480    -0.9970     0.0030 ca         1 O6S      -0.104000
      9 C13         -7.6420    -0.2290     1.0100 ca         1 O6S      -0.105000
     10 C14         -6.3490     0.2920     0.8250 ca         1 O6S      -0.124000
     11 C15         -5.6280     0.0190    -0.3610 ca         1 O6S      -0.083000
     12 C17          0.2270     0.7870     3.0970 c3         1 O6S       0.124300
     13 C18          1.6380     0.7150     2.5370 cc         1 O6S       0.487900
     14 C20          3.9370     0.8270     2.6800 cd         1 O6S       0.056400
     15 C22          6.3140     0.7290     1.9450 cd         1 O6S      -0.261000
     16 C23          5.4270     0.4740     0.9200 cc         1 O6S       0.018000
     17 C24          6.0220    -0.0150    -0.3370 ca         1 O6S      -0.027000
     18 C25          7.2330     0.5400    -0.8140 ca         1 O6S      -0.081500
     19 C26          7.8240     0.0690    -1.9990 ca         1 O6S      -0.114000
     20 C27          7.2250    -0.9760    -2.7190 ca         1 O6S      -0.102000
     21 C28          6.0380    -1.5550    -2.2440 ca         1 O6S      -0.114000
     22 C29          5.4450    -1.0820    -1.0600 ca         1 O6S      -0.081500
     23 C30          4.0540     0.5260     1.3420 cc         1 O6S      -0.225600
     24 C31          2.8640     0.3710     0.4860 c          1 O6S       0.598600
     25 N05         -4.3130     0.5790    -0.6140 n          1 O6S      -0.218400
     26 N19          2.6990     0.9250     3.3190 nd         1 O6S      -0.570100
     27 N33          1.7170     0.4640     1.1930 ns         1 O6S      -0.426400
     28 O01         -2.4880     0.7140     3.5790 o          1 O6S      -0.486000
     29 O09         -5.6800    -0.8560    -2.6270 os         1 O6S      -0.325100
     30 O16         -0.7500     0.3080     2.1360 os         1 O6S      -0.408100
     31 O32          2.8450     0.2160    -0.7230 o          1 O6S      -0.521000
     32 S21          5.4990     1.0830     3.4760 ss         1 O6S       0.286000
     33 H1          -2.3950    -0.8630     0.7320 hc         1 O6S       0.090700
     34 H2          -3.8320    -0.7070     1.8110 hc         1 O6S       0.090700
     35 H3          -3.9880     1.7140     1.1430 h1         1 O6S       0.078200
     36 H4          -2.5690     1.5340     0.1350 h1         1 O6S       0.078200
     37 H5          -5.2730     1.0930    -3.2510 h1         1 O6S       0.086200
     38 H6          -4.1810    -0.1660    -3.9170 h1         1 O6S       0.086200
     39 H7          -8.0540    -1.7770    -2.0060 ha         1 O6S       0.133000
     40 H8          -9.2480    -1.4000     0.1520 ha         1 O6S       0.122000
     41 H9          -8.1760    -0.0350     1.9380 ha         1 O6S       0.120000
     42 H10         -5.9180     0.8880     1.6240 ha         1 O6S       0.122000
     43 H11          0.1890     0.1850     4.0130 h1         1 O6S       0.069700
     44 H12          0.0190     1.8290     3.3710 h1         1 O6S       0.069700
     45 H13          7.3950     0.6840     1.9260 h4         1 O6S       0.158000
     46 H14          7.7080     1.3590    -0.2800 ha         1 O6S       0.115000
     47 H15          8.7480     0.5170    -2.3600 ha         1 O6S       0.112500
     48 H16          7.6840    -1.3420    -3.6340 ha         1 O6S       0.111000
     49 H17          5.5810    -2.3790    -2.7870 ha         1 O6S       0.112500
     50 H18          4.5560    -1.5800    -0.6870 ha         1 O6S       0.115000
     51 H19          0.8580     0.3480     0.6750 hn         1 O6S       0.330500
     52 O07         -2.5300     0.5410    -2.1050 o          1 O6S      -0.527000
@<TRIPOS>BOND
     1     1     2 1   
     2     1    28 2   
     3     1    30 1   
     4     2     3 1   
     5     2    33 1   
     6     2    34 1   
     7     3    25 1   
     8     3    35 1   
     9     3    36 1   
    10     4     5 1   
    11     4    25 1   
    12     4    52 2   
    13     5    29 1   
    14     5    37 1   
    15     5    38 1   
    16     6     7 ar  
    17     6    11 ar  
    18     6    29 1   
    19     7     8 ar  
    20     7    39 1   
    21     8     9 ar  
    22     8    40 1   
    23     9    10 ar  
    24     9    41 1   
    25    10    11 ar  
    26    10    42 1   
    27    11    25 1   
    28    12    13 1   
    29    12    30 1   
    30    12    43 1   
    31    12    44 1   
    32    13    26 2   
    33    13    27 1   
    34    14    23 2   
    35    14    26 1   
    36    14    32 1   
    37    15    16 2   
    38    15    32 1   
    39    15    45 1   
    40    16    17 1   
    41    16    23 1   
    42    17    18 ar  
    43    17    22 ar  
    44    18    19 ar  
    45    18    46 1   
    46    19    20 ar  
    47    19    47 1   
    48    20    21 ar  
    49    20    48 1   
    50    21    22 ar  
    51    21    49 1   
    52    22    50 1   
    53    23    24 1   
    54    24    27 1   
    55    24    31 2   
    56    27    51 1   
@<TRIPOS>SUBSTRUCTURE
     1 O6S         1 TEMP              0 ****  ****    0 ROOT
