@<TRIPOS>MOLECULE
O6V
   52    56     1     0     0
SMALL
No Charge or Current Charge


@<TRIPOS>ATOM
      1 C01          1.1340     2.3430     2.6910 c3         1 O6V      -0.100100
      2 C02          0.6490     0.8830     2.8670 c3         1 O6V       0.142000
      3 C04          2.8400    -0.1980     2.9830 c          1 O6V       0.603100
      4 C06          3.7990    -1.0580     2.1640 c3         1 O6V      -0.131400
      5 C07          4.8650    -0.2180     1.3850 c6         1 O6V      -0.028700
      6 C09          3.2760     0.3920    -0.8280 ca         1 O6V      -0.167000
      7 C10          2.1170     0.9590    -1.3860 ca         1 O6V      -0.052000
      8 C11          1.4710     0.3220    -2.4590 ca         1 O6V      -0.129000
      9 C12          1.9900    -0.8740    -2.9820 ca         1 O6V      -0.071000
     10 C13          3.1550    -1.4350    -2.4310 ca         1 O6V      -0.148000
     11 C14          3.7990    -0.8100    -1.3480 ca         1 O6V      -0.015000
     12 C16          5.6170    -1.1170     0.3850 c          1 O6V       0.578000
     13 C18         -0.6830     0.6400     2.1630 cc         1 O6V       0.497900
     14 C20         -2.9810     0.6820     1.9720 cd         1 O6V       0.061400
     15 C22         -5.2240     0.4230     0.9240 cd         1 O6V      -0.260000
     16 C23         -4.1960     0.0470     0.0850 cc         1 O6V       0.019000
     17 C24         -4.5740    -0.2210    -1.3140 ca         1 O6V      -0.027000
     18 C25         -5.7730    -0.9100    -1.6090 ca         1 O6V      -0.081500
     19 C26         -6.1560    -1.1540    -2.9400 ca         1 O6V      -0.114000
     20 C27         -5.3570    -0.6960    -3.9980 ca         1 O6V      -0.102000
     21 C28         -4.1780     0.0140    -3.7220 ca         1 O6V      -0.114000
     22 C29         -3.7940     0.2540    -2.3920 ca         1 O6V      -0.081500
     23 C30         -2.8990     0.1990     0.6860 cc         1 O6V      -0.225600
     24 C31         -1.6060    -0.1770     0.0890 c          1 O6V       0.595600
     25 N15          4.9750    -1.3890    -0.8110 ns         1 O6V      -0.146000
     26 N19         -1.8470     0.9220     2.7530 nd         1 O6V      -0.598100
     27 N33         -0.5710     0.1130     0.9040 ns         1 O6V      -0.412400
     28 O03          1.6600     0.0020     2.3120 os         1 O6V      -0.460100
     29 O05          3.0980     0.2430     4.0930 o          1 O6V      -0.463000
     30 O17          6.7210    -1.5800     0.6420 o          1 O6V      -0.519000
     31 O32         -1.4270    -0.7260    -0.9840 o          1 O6V      -0.522000
     32 S08          4.0990     1.2230     0.5160 ss         1 O6V      -0.104000
     33 S21         -4.6460     0.9490     2.5130 ss         1 O6V       0.278000
     34 H1           1.3240     2.5630     1.6340 hc         1 O6V       0.061700
     35 H2           0.3710     3.0430     3.0530 hc         1 O6V       0.061700
     36 H3           2.0540     2.5320     3.2550 hc         1 O6V       0.061700
     37 H4           0.4990     0.6760     3.9360 h1         1 O6V       0.084700
     38 H5           4.3050    -1.7580     2.8380 hc         1 O6V       0.090700
     39 H6           3.2000    -1.6180     1.4360 hc         1 O6V       0.090700
     40 H7           5.6070     0.1780     2.0920 h1         1 O6V       0.131700
     41 H8           1.7190     1.8910    -0.9910 ha         1 O6V       0.128000
     42 H9           0.5700     0.7570    -2.8870 ha         1 O6V       0.122000
     43 H10          1.4900    -1.3650    -3.8150 ha         1 O6V       0.120000
     44 H11          3.5530    -2.3590    -2.8440 ha         1 O6V       0.120000
     45 H12         -6.2830     0.4800     0.7070 h4         1 O6V       0.158000
     46 H13         -6.4010    -1.2860    -0.8050 ha         1 O6V       0.115000
     47 H14         -7.0740    -1.6990    -3.1490 ha         1 O6V       0.112500
     48 H15         -5.6550    -0.8820    -5.0280 ha         1 O6V       0.111000
     49 H16         -3.5660     0.3880    -4.5400 ha         1 O6V       0.112500
     50 H17         -2.9050     0.8490    -2.2060 ha         1 O6V       0.115000
     51 H18          5.4500    -2.0450    -1.4170 hn         1 O6V       0.167000
     52 H19          0.3510    -0.1220     0.5660 hn         1 O6V       0.334500
@<TRIPOS>BOND
     1     1     2 1   
     2     1    34 1   
     3     1    35 1   
     4     1    36 1   
     5     2    13 1   
     6     2    28 1   
     7     2    37 1   
     8     3     4 1   
     9     3    28 1   
    10     3    29 2   
    11     4     5 1   
    12     4    38 1   
    13     4    39 1   
    14     5    12 1   
    15     5    32 1   
    16     5    40 1   
    17     6     7 ar  
    18     6    11 ar  
    19     6    32 1   
    20     7     8 ar  
    21     7    41 1   
    22     8     9 ar  
    23     8    42 1   
    24     9    10 ar  
    25     9    43 1   
    26    10    11 ar  
    27    10    44 1   
    28    11    25 1   
    29    12    25 1   
    30    12    30 2   
    31    13    26 2   
    32    13    27 1   
    33    14    23 2   
    34    14    26 1   
    35    14    33 1   
    36    15    16 2   
    37    15    33 1   
    38    15    45 1   
    39    16    17 1   
    40    16    23 1   
    41    17    18 ar  
    42    17    22 ar  
    43    18    19 ar  
    44    18    46 1   
    45    19    20 ar  
    46    19    47 1   
    47    20    21 ar  
    48    20    48 1   
    49    21    22 ar  
    50    21    49 1   
    51    22    50 1   
    52    23    24 1   
    53    24    27 1   
    54    24    31 2   
    55    25    51 1   
    56    27    52 1   
@<TRIPOS>SUBSTRUCTURE
     1 O6V         1 TEMP              0 ****  ****    0 ROOT
