@<TRIPOS>MOLECULE
O6V
   52    56     1     0     0
SMALL
abcg2


@<TRIPOS>ATOM
      1 C01          0.7680     2.5380     2.0300 c3         1 O6V      -0.100100
      2 C02          0.2620     1.1150     1.9560 c3         1 O6V       0.142000
      3 C04          2.1780    -0.2860     1.7300 c          1 O6V       0.603100
      4 C06          2.9440    -1.1110     0.7290 c3         1 O6V      -0.131400
      5 C07          4.3500    -1.4340     1.2140 c6         1 O6V      -0.028700
      6 C09          5.5140     0.4540    -0.2960 ca         1 O6V      -0.167000
      7 C10          5.5880     1.7830    -0.7000 ca         1 O6V      -0.052000
      8 C11          5.7600     2.0990    -2.0380 ca         1 O6V      -0.129000
      9 C12          5.8340     1.0810    -2.9820 ca         1 O6V      -0.071000
     10 C13          5.7380    -0.2430    -2.5900 ca         1 O6V      -0.148000
     11 C14          5.5910    -0.5680    -1.2440 ca         1 O6V      -0.015000
     12 C16          5.0270    -2.4220     0.2840 c          1 O6V       0.578000
     13 C18         -1.1010     0.9910     1.3210 cc         1 O6V       0.497900
     14 C20         -3.0420     1.8120     0.5880 cd         1 O6V       0.061400
     15 C22         -5.3280     1.9810    -0.2900 cd         1 O6V      -0.260000
     16 C23         -4.9120     0.6850    -0.2720 cc         1 O6V       0.019000
     17 C24         -5.7630    -0.4190    -0.7500 ca         1 O6V      -0.027000
     18 C25         -7.0620    -0.5540    -0.2630 ca         1 O6V      -0.081500
     19 C26         -7.8960    -1.5560    -0.7420 ca         1 O6V      -0.114000
     20 C27         -7.4400    -2.4340    -1.7150 ca         1 O6V      -0.102000
     21 C28         -6.1470    -2.3040    -2.2070 ca         1 O6V      -0.114000
     22 C29         -5.3130    -1.3060    -1.7280 ca         1 O6V      -0.081500
     23 C30         -3.5790     0.5840     0.2440 cc         1 O6V      -0.225600
     24 C31         -2.7810    -0.5890     0.5140 c          1 O6V       0.595600
     25 N15          5.5490    -1.9070    -0.8580 ns         1 O6V      -0.146000
     26 N19         -1.8180     2.0420     1.1120 nd         1 O6V      -0.598100
     27 N33         -1.5360    -0.2610     1.0430 ns         1 O6V      -0.412400
     28 O03          1.1310     0.3030     1.1520 os         1 O6V      -0.460100
     29 O05          2.4480    -0.1870     2.8960 o          1 O6V      -0.463000
     30 O17          5.0610    -3.6120     0.5290 o          1 O6V      -0.519000
     31 O32         -3.0900    -1.7520     0.3400 o          1 O6V      -0.522000
     32 S08          5.3860     0.0430     1.4060 ss         1 O6V      -0.104000
     33 S21         -4.1500     3.0930     0.2900 ss         1 O6V       0.278000
     34 H1           0.8560     2.9820     1.0400 hc         1 O6V       0.061700
     35 H2           0.0890     3.1460     2.6230 hc         1 O6V       0.061700
     36 H3           1.7430     2.5580     2.5140 hc         1 O6V       0.061700
     37 H4           0.1930     0.6900     2.9640 h1         1 O6V       0.084700
     38 H5           2.3860    -2.0420     0.5780 hc         1 O6V       0.090700
     39 H6           2.9560    -0.6050    -0.2380 hc         1 O6V       0.090700
     40 H7           4.3110    -1.8940     2.2010 h1         1 O6V       0.131700
     41 H8           5.5110     2.5680     0.0410 ha         1 O6V       0.128000
     42 H9           5.8270     3.1350    -2.3420 ha         1 O6V       0.122000
     43 H10          5.9560     1.3170    -4.0300 ha         1 O6V       0.120000
     44 H11          5.7830    -1.0350    -3.3270 ha         1 O6V       0.120000
     45 H12         -6.2780     2.3500    -0.6480 h4         1 O6V       0.158000
     46 H13         -7.4210     0.1220     0.5040 ha         1 O6V       0.115000
     47 H14         -8.9010    -1.6500    -0.3510 ha         1 O6V       0.112500
     48 H15         -8.0890    -3.2150    -2.0910 ha         1 O6V       0.111000
     49 H16         -5.7870    -2.9800    -2.9730 ha         1 O6V       0.112500
     50 H17         -4.3140    -1.2040    -2.1290 ha         1 O6V       0.115000
     51 H18          5.8930    -2.5840    -1.5260 hn         1 O6V       0.167000
     52 H19         -0.9290    -1.0470     1.2440 hn         1 O6V       0.334500
@<TRIPOS>BOND
     1     1     2 1   
     2     1    34 1   
     3     1    35 1   
     4     1    36 1   
     5     2    13 1   
     6     2    28 1   
     7     2    37 1   
     8     3     4 1   
     9     3    28 1   
    10     3    29 2   
    11     4     5 1   
    12     4    38 1   
    13     4    39 1   
    14     5    12 1   
    15     5    32 1   
    16     5    40 1   
    17     6     7 ar  
    18     6    11 ar  
    19     6    32 1   
    20     7     8 ar  
    21     7    41 1   
    22     8     9 ar  
    23     8    42 1   
    24     9    10 ar  
    25     9    43 1   
    26    10    11 ar  
    27    10    44 1   
    28    11    25 1   
    29    12    25 1   
    30    12    30 2   
    31    13    26 2   
    32    13    27 1   
    33    14    23 2   
    34    14    26 1   
    35    14    33 1   
    36    15    16 2   
    37    15    33 1   
    38    15    45 1   
    39    16    17 1   
    40    16    23 1   
    41    17    18 ar  
    42    17    22 ar  
    43    18    19 ar  
    44    18    46 1   
    45    19    20 ar  
    46    19    47 1   
    47    20    21 ar  
    48    20    48 1   
    49    21    22 ar  
    50    21    49 1   
    51    22    50 1   
    52    23    24 1   
    53    24    27 1   
    54    24    31 2   
    55    25    51 1   
    56    27    52 1   
@<TRIPOS>SUBSTRUCTURE
     1 O6V         1 TEMP              0 ****  ****    0 ROOT
