@<TRIPOS>MOLECULE
O6W
   34    35     1     0     0
SMALL
abcg2


@<TRIPOS>ATOM
      1 C20         -2.2920    -1.1840    -1.3640 ca         1 O6W      -0.101000
      2 C22         -3.2730    -0.3060    -1.7290 ca         1 O6W      -0.062000
      3 C24         -3.8860     0.5260    -0.7680 ca         1 O6W      -0.104000
      4 C28         -5.1020     2.1410     1.0630 ca         1 O6W       0.333900
      5 F01          5.4510     0.6130     0.7260 f          1 O6W      -0.116000
      6 C02          4.5530     1.5130     0.2980 c3         1 O6W       0.300000
      7 F03          4.9120     2.6950     0.8210 f          1 O6W      -0.116000
      8 F04          4.7170     1.6130    -1.0300 f          1 O6W      -0.116000
      9 C05          3.1440     1.1450     0.6770 c3         1 O6W      -0.145400
     10 C08          2.7050    -0.2000     0.1050 c3         1 O6W      -0.041400
     11 C11          1.2680    -0.4800     0.5210 c3         1 O6W      -0.348400
     12 S14          0.6900    -2.0320    -0.1590 s6         1 O6W       1.180100
     13 O15          0.6680    -1.9130    -1.6070 o          1 O6W      -0.515000
     14 O16          1.4150    -3.1260     0.4620 o          1 O6W      -0.515000
     15 C19         -1.8700    -1.2470    -0.0140 ca         1 O6W       0.262000
     16 C25         -4.9130     1.4400    -1.0960 ca         1 O6W       0.369900
     17 N27         -5.5010     2.2170    -0.2270 nb         1 O6W      -0.660000
     18 C30         -4.1230     1.2980     1.5070 ca         1 O6W      -0.152000
     19 C32         -3.4770     0.4490     0.5820 ca         1 O6W       0.002000
     20 C33         -2.4470    -0.4460     0.9390 ca         1 O6W      -0.143000
     21 H1          -1.8540    -1.8460    -2.0950 ha         1 O6W       0.152000
     22 H2          -3.6010    -0.2590    -2.7600 ha         1 O6W       0.128000
     23 H3          -5.6100     2.8020     1.7550 h4         1 O6W       0.023100
     24 H4           3.0790     1.1350     1.7670 hc         1 O6W       0.079700
     25 H5           2.4830     1.9400     0.3240 hc         1 O6W       0.079700
     26 H6           2.7740    -0.1860    -0.9840 hc         1 O6W       0.075200
     27 H7           3.3540    -0.9960     0.4710 hc         1 O6W       0.075200
     28 H8           1.1670    -0.5550     1.6050 h1         1 O6W       0.095700
     29 H9           0.5890     0.2970     0.1640 h1         1 O6W       0.095700
     30 H10         -0.9200    -2.4570     1.3420 hn         1 O6W       0.490000
     31 H11         -5.2440     1.5100    -2.1290 h4         1 O6W       0.023100
     32 H12         -3.8450     1.2810     2.5530 ha         1 O6W       0.124000
     33 H13         -2.1200    -0.4980     1.9700 ha         1 O6W       0.117000
     34 N17         -0.8860    -2.1900     0.3630 nu         1 O6W      -0.870100
@<TRIPOS>BOND
     1     1     2 ar  
     2     1    15 ar  
     3     1    21 1   
     4     2     3 ar  
     5     2    22 1   
     6     3    16 ar  
     7     3    19 ar  
     8     4    17 ar  
     9     4    18 ar  
    10     4    23 1   
    11     5     6 1   
    12     6     7 1   
    13     6     8 1   
    14     6     9 1   
    15     9    10 1   
    16     9    24 1   
    17     9    25 1   
    18    10    11 1   
    19    10    26 1   
    20    10    27 1   
    21    11    12 1   
    22    11    28 1   
    23    11    29 1   
    24    12    13 2   
    25    12    14 2   
    26    12    34 1   
    27    15    20 ar  
    28    15    34 1   
    29    16    17 ar  
    30    16    31 1   
    31    18    19 ar  
    32    18    32 1   
    33    19    20 ar  
    34    20    33 1   
    35    30    34 1   
@<TRIPOS>SUBSTRUCTURE
     1 O6W         1 TEMP              0 ****  ****    0 ROOT
