@<TRIPOS>MOLECULE
O6W
   34    35     1     0     0
SMALL
No Charge or Current Charge


@<TRIPOS>ATOM
      1 C20         -1.8220    -0.3930    -1.0550 ca         1 O6W      -0.101000
      2 C22         -2.8290     0.4890    -1.4880 ca         1 O6W      -0.062000
      3 C24         -3.8930     0.8140    -0.6290 ca         1 O6W      -0.104000
      4 C28         -6.0040     1.4810     1.0100 ca         1 O6W       0.333900
      5 F01          5.7440     0.4450     0.6360 f          1 O6W      -0.116000
      6 C02          4.9920     1.2250    -0.1740 c3         1 O6W       0.300000
      7 F03          5.4160     2.5010    -0.0310 f          1 O6W      -0.116000
      8 F04          5.2270     0.8510    -1.4520 f          1 O6W      -0.116000
      9 C05          3.4920     1.1090     0.1760 c3         1 O6W      -0.145400
     10 C08          2.9090    -0.3190     0.0430 c3         1 O6W      -0.041400
     11 C11          1.4050    -0.3670     0.4050 c3         1 O6W      -0.348400
     12 S14          0.6920    -2.0120     0.2590 s6         1 O6W       1.180100
     13 O15          0.6780    -2.4230    -1.1460 o          1 O6W      -0.515000
     14 O16          1.2810    -2.8780     1.2810 o          1 O6W      -0.515000
     15 C19         -1.8670    -0.9540     0.2390 ca         1 O6W       0.262000
     16 C25         -4.9200     1.6940    -1.0290 ca         1 O6W       0.369900
     17 N27         -5.9610     2.0280    -0.2280 nb         1 O6W      -0.660000
     18 C30         -5.0250     0.5950     1.4910 ca         1 O6W      -0.152000
     19 C32         -3.9460     0.2520     0.6590 ca         1 O6W       0.002000
     20 C33         -2.9390    -0.6300     1.0890 ca         1 O6W      -0.143000
     21 H1          -1.0170    -0.6360    -1.7400 ha         1 O6W       0.152000
     22 H2          -2.7800     0.9150    -2.4890 ha         1 O6W       0.128000
     23 H3          -6.8500     1.7630     1.6360 h4         1 O6W       0.023100
     24 H4           3.3430     1.4630     1.2030 hc         1 O6W       0.079700
     25 H5           2.9280     1.7890    -0.4750 hc         1 O6W       0.079700
     26 H6           3.0500    -0.6760    -0.9870 hc         1 O6W       0.075200
     27 H7           3.4660    -1.0030     0.6970 hc         1 O6W       0.075200
     28 H8           1.2460    -0.0560     1.4430 h1         1 O6W       0.095700
     29 H9           0.8280     0.2820    -0.2610 h1         1 O6W       0.095700
     30 H10         -0.9330    -2.0980     1.6930 hn         1 O6W       0.490000
     31 H11         -4.9100     2.1470    -2.0200 h4         1 O6W       0.023100
     32 H12         -5.1110     0.1870     2.4940 ha         1 O6W       0.124000
     33 H13         -2.9890    -1.0600     2.0850 ha         1 O6W       0.117000
     34 N17         -0.8950    -1.8330     0.7180 nu         1 O6W      -0.870100
@<TRIPOS>BOND
     1     1     2 ar  
     2     1    15 ar  
     3     1    21 1   
     4     2     3 ar  
     5     2    22 1   
     6     3    16 ar  
     7     3    19 ar  
     8     4    17 ar  
     9     4    18 ar  
    10     4    23 1   
    11     5     6 1   
    12     6     7 1   
    13     6     8 1   
    14     6     9 1   
    15     9    10 1   
    16     9    24 1   
    17     9    25 1   
    18    10    11 1   
    19    10    26 1   
    20    10    27 1   
    21    11    12 1   
    22    11    28 1   
    23    11    29 1   
    24    12    13 2   
    25    12    14 2   
    26    12    34 1   
    27    15    20 ar  
    28    15    34 1   
    29    16    17 ar  
    30    16    31 1   
    31    18    19 ar  
    32    18    32 1   
    33    19    20 ar  
    34    20    33 1   
    35    30    34 1   
@<TRIPOS>SUBSTRUCTURE
     1 O6W         1 TEMP              0 ****  ****    0 ROOT
