@<TRIPOS>MOLECULE
O6Y
   45    47     1     0     0
SMALL
No Charge or Current Charge


@<TRIPOS>ATOM
      1 C11         19.6850    -8.8440     1.2180 ca         1 O6Y       0.094100
      2 C12         20.9060    -8.4500     1.8000 ca         1 O6Y      -0.113500
      3 C13         21.4810    -7.2140     1.4580 ca         1 O6Y      -0.084000
      4 C14         20.8460    -6.3680     0.5280 ca         1 O6Y      -0.065300
      5 C15         19.6330    -6.7720    -0.0620 ca         1 O6Y      -0.084000
      6 C16         19.0570    -8.0090     0.2800 ca         1 O6Y      -0.113500
      7 C17         21.4730    -5.0280     0.1570 c3         1 O6Y      -0.109100
      8 C21         21.4240    -1.4740     1.8300 c6         1 O6Y       0.069000
      9 C22         22.4090    -0.2780     1.7920 c6         1 O6Y       0.143100
     10 C24         23.3980    -1.0100    -0.2530 c6         1 O6Y       0.143100
     11 C25         22.4820    -2.2590    -0.3380 c6         1 O6Y       0.069000
     12 C02         19.2900   -12.5650     4.2230 ca         1 O6Y      -0.000300
     13 C03         19.2820   -11.9760     2.9430 ca         1 O6Y      -0.155000
     14 C04         19.1210   -10.5910     2.7930 ca         1 O6Y       0.167100
     15 C05         18.9450    -9.7780     3.9260 ca         1 O6Y      -0.195000
     16 C06         18.9520   -10.3520     5.2080 ca         1 O6Y      -0.030000
     17 C07         19.1260   -11.7410     5.3640 ca         1 O6Y      -0.066000
     18 C08         19.1270   -12.2930     6.6940 cg         1 O6Y       0.333000
     19 C18         21.0820    -3.8480     1.0710 c          1 O6Y       0.603100
     20 N09         19.1260   -12.7310     7.7770 n1         1 O6Y      -0.467000
     21 N20         21.7930    -2.6280     0.9450 n          1 O6Y      -0.416800
     22 O10         19.1060   -10.0550     1.5250 os         1 O6Y      -0.252200
     23 O19         20.2060    -3.9690     1.9190 o          1 O6Y      -0.588100
     24 O23         22.7320     0.0650     0.4330 os         1 O6Y      -0.447000
     25 H1          21.4110    -9.1000     2.5110 ha         1 O6Y       0.130500
     26 H2          22.4220    -6.9140     1.9140 ha         1 O6Y       0.116500
     27 H3          19.1350    -6.1290    -0.7840 ha         1 O6Y       0.116500
     28 H4          18.1210    -8.3180    -0.1780 ha         1 O6Y       0.130500
     29 H5          22.5670    -5.0850     0.1240 hc         1 O6Y       0.065700
     30 H6          21.2510    -4.7370    -0.8760 hc         1 O6Y       0.065700
     31 H7          20.4280    -1.1150     1.5350 h1         1 O6Y       0.058200
     32 H8          21.3450    -1.8230     2.8700 h1         1 O6Y       0.058200
     33 H9          23.3330    -0.5360     2.3290 h1         1 O6Y       0.051450
     34 H10         21.9590     0.5930     2.2890 h1         1 O6Y       0.051450
     35 H11         23.6740    -0.6790    -1.2640 h1         1 O6Y       0.051450
     36 H12         24.3230    -1.2620     0.2850 h1         1 O6Y       0.051450
     37 H13         21.7140    -2.0770    -1.1040 h1         1 O6Y       0.058200
     38 H14         23.0990    -3.0950    -0.6930 h1         1 O6Y       0.058200
     39 H15         20.3710   -14.3190     4.9300 hc         1 O6Y       0.052700
     40 H16         18.6130   -14.5420     4.8370 hc         1 O6Y       0.052700
     41 H17         19.5880   -14.5550     3.3640 hc         1 O6Y       0.052700
     42 H18         19.4040   -12.5910     2.0550 ha         1 O6Y       0.132000
     43 H19         18.7990    -8.7060     3.8160 ha         1 O6Y       0.140000
     44 H20         18.8180    -9.7140     6.0800 ha         1 O6Y       0.126000
     45 C01         19.4750   -14.0770     4.3450 c3         1 O6Y      -0.056800
@<TRIPOS>BOND
     1     1     2 ar  
     2     1     6 ar  
     3     1    22 1   
     4     2     3 ar  
     5     2    25 1   
     6     3     4 ar  
     7     3    26 1   
     8     4     5 ar  
     9     4     7 1   
    10     5     6 ar  
    11     5    27 1   
    12     6    28 1   
    13     7    19 1   
    14     7    29 1   
    15     7    30 1   
    16     8     9 1   
    17     8    21 1   
    18     8    31 1   
    19     8    32 1   
    20     9    24 1   
    21     9    33 1   
    22     9    34 1   
    23    10    11 1   
    24    10    24 1   
    25    10    35 1   
    26    10    36 1   
    27    11    21 1   
    28    11    37 1   
    29    11    38 1   
    30    12    13 ar  
    31    12    17 ar  
    32    12    45 1   
    33    13    14 ar  
    34    13    42 1   
    35    14    15 ar  
    36    14    22 1   
    37    15    16 ar  
    38    15    43 1   
    39    16    17 ar  
    40    16    44 1   
    41    17    18 1   
    42    18    20 3   
    43    19    21 1   
    44    19    23 2   
    45    39    45 1   
    46    40    45 1   
    47    41    45 1   
@<TRIPOS>SUBSTRUCTURE
     1 O6Y         1 TEMP              0 ****  ****    0 ROOT
