@<TRIPOS>MOLECULE
O6Y
   45    47     1     0     0
SMALL
abcg2


@<TRIPOS>ATOM
      1 C11         20.3980    -8.9780     1.1340 ca         1 O6Y       0.094100
      2 C12         21.6970    -8.5990     1.4350 ca         1 O6Y      -0.113500
      3 C13         22.1210    -7.3210     1.1060 ca         1 O6Y      -0.084000
      4 C14         21.2660    -6.4190     0.4800 ca         1 O6Y      -0.065300
      5 C15         19.9710    -6.8270     0.1830 ca         1 O6Y      -0.084000
      6 C16         19.5280    -8.1010     0.5090 ca         1 O6Y      -0.113500
      7 C17         21.7320    -5.0350     0.1410 c3         1 O6Y      -0.109100
      8 C21         21.7290    -1.8600     2.2370 c6         1 O6Y       0.069000
      9 C22         22.2120    -0.4830     1.8190 c6         1 O6Y       0.143100
     10 C24         21.9250    -0.9800    -0.4810 c6         1 O6Y       0.143100
     11 C25         22.6000    -2.2680    -0.0300 c6         1 O6Y       0.069000
     12 C02         18.9330   -12.3590     4.1610 ca         1 O6Y      -0.000300
     13 C03         19.3350   -11.9190     2.9130 ca         1 O6Y      -0.155000
     14 C04         19.6000   -10.5710     2.6750 ca         1 O6Y       0.167100
     15 C05         19.4630    -9.6310     3.6930 ca         1 O6Y      -0.195000
     16 C06         19.0630   -10.0590     4.9450 ca         1 O6Y      -0.030000
     17 C07         18.8000   -11.4060     5.1860 ca         1 O6Y      -0.066000
     18 C08         18.3920   -11.8160     6.4860 cg         1 O6Y       0.333000
     19 C18         21.5140    -4.0720     1.3010 c          1 O6Y       0.603100
     20 N09         18.0580   -12.1520     7.5380 n1         1 O6Y      -0.467000
     21 N20         21.9290    -2.8000     1.1390 n          1 O6Y      -0.416800
     22 O10         19.9760   -10.2590     1.4170 os         1 O6Y      -0.252200
     23 O19         20.9800    -4.4380     2.3380 o          1 O6Y      -0.588100
     24 O23         21.6430    -0.0950     0.5900 os         1 O6Y      -0.447000
     25 H1          22.3730    -9.2960     1.9160 ha         1 O6Y       0.130500
     26 H2          23.1380    -7.0270     1.3370 ha         1 O6Y       0.116500
     27 H3          19.2930    -6.1440    -0.3130 ha         1 O6Y       0.116500
     28 H4          18.5180    -8.4110     0.2720 ha         1 O6Y       0.130500
     29 H5          22.7910    -5.0510    -0.1280 hc         1 O6Y       0.065700
     30 H6          21.1990    -4.6670    -0.7400 hc         1 O6Y       0.065700
     31 H7          20.6690    -1.8150     2.4950 h1         1 O6Y       0.058200
     32 H8          22.2700    -2.1800     3.1320 h1         1 O6Y       0.058200
     33 H9          23.3080    -0.4480     1.7870 h1         1 O6Y       0.051450
     34 H10         21.8950     0.2440     2.5670 h1         1 O6Y       0.051450
     35 H11         20.9790    -1.2220    -0.9740 h1         1 O6Y       0.051450
     36 H12         22.5700    -0.4910    -1.2190 h1         1 O6Y       0.051450
     37 H13         22.5630    -2.9720    -0.8570 h1         1 O6Y       0.058200
     38 H14         23.6590    -2.1000     0.1850 h1         1 O6Y       0.058200
     39 H15         19.2870   -14.2010     5.2090 hc         1 O6Y       0.052700
     40 H16         17.6170   -13.9600     4.7230 hc         1 O6Y       0.052700
     41 H17         18.8260   -14.4030     3.5200 hc         1 O6Y       0.052700
     42 H18         19.4470   -12.6300     2.1040 ha         1 O6Y       0.132000
     43 H19         19.6580    -8.5810     3.5260 ha         1 O6Y       0.140000
     44 H20         18.9520    -9.3380     5.7430 ha         1 O6Y       0.126000
     45 C01         18.6520   -13.8070     4.4140 c3         1 O6Y      -0.056800
@<TRIPOS>BOND
     1     1     2 ar  
     2     1     6 ar  
     3     1    22 1   
     4     2     3 ar  
     5     2    25 1   
     6     3     4 ar  
     7     3    26 1   
     8     4     5 ar  
     9     4     7 1   
    10     5     6 ar  
    11     5    27 1   
    12     6    28 1   
    13     7    19 1   
    14     7    29 1   
    15     7    30 1   
    16     8     9 1   
    17     8    21 1   
    18     8    31 1   
    19     8    32 1   
    20     9    24 1   
    21     9    33 1   
    22     9    34 1   
    23    10    11 1   
    24    10    24 1   
    25    10    35 1   
    26    10    36 1   
    27    11    21 1   
    28    11    37 1   
    29    11    38 1   
    30    12    13 ar  
    31    12    17 ar  
    32    12    45 1   
    33    13    14 ar  
    34    13    42 1   
    35    14    15 ar  
    36    14    22 1   
    37    15    16 ar  
    38    15    43 1   
    39    16    17 ar  
    40    16    44 1   
    41    17    18 1   
    42    18    20 3   
    43    19    21 1   
    44    19    23 2   
    45    39    45 1   
    46    40    45 1   
    47    41    45 1   
@<TRIPOS>SUBSTRUCTURE
     1 O6Y         1 TEMP              0 ****  ****    0 ROOT
