@<TRIPOS>MOLECULE
O6Z
   32    33     1     0     0
SMALL
abcg2


@<TRIPOS>ATOM
      1 C20         -1.4640    -1.3130    -1.2040 ca         1 O6Z      -0.040000
      2 C22         -2.6180    -0.7010    -1.6280 ca         1 O6Z      -0.118000
      3 C24         -3.2280     0.1930    -0.7410 ca         1 O6Z      -0.035200
      4 C28         -3.6040     1.3890     1.1020 cc         1 O6Z       0.354800
      5 C01          4.9870     2.9040     0.0550 c3         1 O6Z      -0.091100
      6 C05          3.7300     2.2770     0.6400 c3         1 O6Z      -0.069400
      7 C08          3.3900     0.9490    -0.0300 c3         1 O6Z      -0.044400
      8 C11          2.1110     0.3530     0.5440 c3         1 O6Z      -0.342400
      9 S14          1.7460    -1.2400    -0.1840 s6         1 O6Z       1.172100
     10 O15          1.5630    -1.0560    -1.6160 o          1 O6Z      -0.523500
     11 O16          2.7260    -2.2050     0.2910 o          1 O6Z      -0.523500
     12 C19         -0.9010    -1.0380     0.0640 ca         1 O6Z       0.199000
     13 N25         -4.3510     0.9400    -0.8350 na         1 O6Z      -0.057400
     14 N27         -4.5770     1.6570     0.2670 nd         1 O6Z      -0.508100
     15 C30         -2.6950     0.4590     0.5320 ca         1 O6Z      -0.227900
     16 C31         -1.5040    -0.1570     0.9350 ca         1 O6Z      -0.062000
     17 H1          -0.9780    -2.0350    -1.8440 ha         1 O6Z       0.144000
     18 H2          -3.0390    -0.9170    -2.6010 ha         1 O6Z       0.130000
     19 H3          -3.5680     1.8570     2.0740 h4         1 O6Z       0.052800
     20 H4           5.2340     3.8380     0.5610 hc         1 O6Z       0.034700
     21 H5           5.8450     2.2360     0.1560 hc         1 O6Z       0.034700
     22 H6           4.8620     3.1250    -1.0060 hc         1 O6Z       0.034700
     23 H7           3.8620     2.1180     1.7130 hc         1 O6Z       0.038700
     24 H8           2.8880     2.9660     0.5320 hc         1 O6Z       0.038700
     25 H9           3.2710     1.1020    -1.1050 hc         1 O6Z       0.058200
     26 H10          4.2190     0.2510     0.1060 hc         1 O6Z       0.058200
     27 H11          2.1900     0.1900     1.6210 h1         1 O6Z       0.090700
     28 H12          1.2510     0.9990     0.3560 h1         1 O6Z       0.090700
     29 H13          0.3500    -1.9700     1.4210 hn         1 O6Z       0.487000
     30 H14         -4.9860     1.0050    -1.6140 hn         1 O6Z       0.380000
     31 H15         -1.0720     0.0460     1.9070 ha         1 O6Z       0.117000
     32 N17          0.2840    -1.7290     0.4370 nu         1 O6Z      -0.874100
@<TRIPOS>BOND
     1     1     2 ar  
     2     1    12 ar  
     3     1    17 1   
     4     2     3 ar  
     5     2    18 1   
     6     3    13 1   
     7     3    15 ar  
     8     4    14 2   
     9     4    15 1   
    10     4    19 1   
    11     5     6 1   
    12     5    20 1   
    13     5    21 1   
    14     5    22 1   
    15     6     7 1   
    16     6    23 1   
    17     6    24 1   
    18     7     8 1   
    19     7    25 1   
    20     7    26 1   
    21     8     9 1   
    22     8    27 1   
    23     8    28 1   
    24     9    10 2   
    25     9    11 2   
    26     9    32 1   
    27    12    16 ar  
    28    12    32 1   
    29    13    14 1   
    30    13    30 1   
    31    15    16 ar  
    32    16    31 1   
    33    29    32 1   
@<TRIPOS>SUBSTRUCTURE
     1 O6Z         1 TEMP              0 ****  ****    0 ROOT
