@<TRIPOS>MOLECULE
O6Z
   32    33     1     0     0
SMALL
No Charge or Current Charge


@<TRIPOS>ATOM
      1 C20         -1.0330    -0.2510    -1.0210 ca         1 O6Z      -0.040000
      2 C22         -2.2190     0.3790    -1.4640 ca         1 O6Z      -0.118000
      3 C24         -3.2870     0.4520    -0.5640 ca         1 O6Z      -0.035200
      4 C28         -4.4870     0.2000     1.3010 cc         1 O6Z       0.354800
      5 C01          5.3440     2.6880    -0.4300 c3         1 O6Z      -0.091100
      6 C05          3.9040     2.3300    -0.0160 c3         1 O6Z      -0.069400
      7 C08          3.6130     0.8170    -0.0830 c3         1 O6Z      -0.044400
      8 C11          2.1630     0.4770     0.3350 c3         1 O6Z      -0.342400
      9 S14          1.7980    -1.2840     0.2640 s6         1 O6Z       1.172100
     10 O15          1.8280    -1.7400    -1.1270 o          1 O6Z      -0.523500
     11 O16          2.5810    -1.9750     1.2900 o          1 O6Z      -0.523500
     12 C19         -0.9360    -0.7870     0.2960 ca         1 O6Z       0.199000
     13 N25         -4.5480     0.9930    -0.7030 na         1 O6Z      -0.057400
     14 N27         -5.3160     0.8430     0.4620 nd         1 O6Z      -0.508100
     15 C30         -3.2080    -0.0600     0.6890 ca         1 O6Z      -0.227900
     16 C31         -2.0500    -0.6920     1.1640 ca         1 O6Z      -0.062000
     17 H1          -0.2000    -0.3230    -1.7120 ha         1 O6Z       0.144000
     18 H2          -2.2960     0.7880    -2.4690 ha         1 O6Z       0.130000
     19 H3          -4.8590    -0.0360     2.2900 h4         1 O6Z       0.052800
     20 H4           5.5020     3.7720    -0.3670 hc         1 O6Z       0.034700
     21 H5           6.0710     2.1970     0.2280 hc         1 O6Z       0.034700
     22 H6           5.5420     2.3730    -1.4620 hc         1 O6Z       0.034700
     23 H7           3.7270     2.6890     1.0050 hc         1 O6Z       0.038700
     24 H8           3.2020     2.8640    -0.6690 hc         1 O6Z       0.038700
     25 H9           3.7930     0.4610    -1.1060 hc         1 O6Z       0.058200
     26 H10          4.3180     0.2860     0.5710 hc         1 O6Z       0.058200
     27 H11          1.9750     0.7880     1.3690 h1         1 O6Z       0.090700
     28 H12          1.4460     0.9720    -0.3280 h1         1 O6Z       0.090700
     29 H13          0.2630    -1.6680     1.7530 hn         1 O6Z       0.487000
     30 H14         -4.9180     1.4540    -1.5330 hn         1 O6Z       0.380000
     31 H15         -2.0120    -1.0950     2.1720 ha         1 O6Z       0.117000
     32 N17          0.2200    -1.4180     0.7730 nu         1 O6Z      -0.874100
@<TRIPOS>BOND
     1     1     2 ar  
     2     1    12 ar  
     3     1    17 1   
     4     2     3 ar  
     5     2    18 1   
     6     3    13 1   
     7     3    15 ar  
     8     4    14 2   
     9     4    15 1   
    10     4    19 1   
    11     5     6 1   
    12     5    20 1   
    13     5    21 1   
    14     5    22 1   
    15     6     7 1   
    16     6    23 1   
    17     6    24 1   
    18     7     8 1   
    19     7    25 1   
    20     7    26 1   
    21     8     9 1   
    22     8    27 1   
    23     8    28 1   
    24     9    10 2   
    25     9    11 2   
    26     9    32 1   
    27    12    16 ar  
    28    12    32 1   
    29    13    14 1   
    30    13    30 1   
    31    15    16 ar  
    32    16    31 1   
    33    29    32 1   
@<TRIPOS>SUBSTRUCTURE
     1 O6Z         1 TEMP              0 ****  ****    0 ROOT
