@<TRIPOS>MOLECULE
O71
   56    59     1     0     0
SMALL
abcg2


@<TRIPOS>ATOM
      1 C4          -6.0420     0.9790     0.4970 ca         1 O71       0.214300
      2 C5          -4.9350     0.2750     0.0290 ca         1 O71      -0.203000
      3 C6          -5.0650    -0.3120    -1.2570 ca         1 O71       0.435900
      4 N1          -6.1850    -0.1990    -1.9590 nb         1 O71      -0.341000
      5 N3          -7.1610     1.0890    -0.2080 nb         1 O71      -0.297000
      6 C2          -7.1830     0.4880    -1.4030 ca         1 O71       0.422900
      7 CAI         -5.9970     1.6970     1.8120 c3         1 O71      -0.134700
      8 CAJ         -5.4030     3.0970     1.6520 c3         1 O71      -0.084100
      9 CAK         -3.7330     0.1290     0.7650 cg         1 O71      -0.106000
     10 CAL         -2.6870    -0.0320     1.3460 c1         1 O71      -0.135100
     11 CAM         -1.4300    -0.2520     2.0590 c3         1 O71       0.079700
     12 CAN         -0.3560    -0.7750     1.1250 ca         1 O71      -0.085300
     13 CAO          0.9190    -0.2420     1.1850 ca         1 O71      -0.109000
     14 CAP          1.9870    -0.7170     0.3990 cp         1 O71       0.033000
     15 CAQ          1.6720    -1.7540    -0.4540 ca         1 O71       0.052100
     16 CAR          0.3960    -2.2910    -0.5240 ca         1 O71       0.046100
     17 CAS         -0.6400    -1.8340     0.2480 ca         1 O71      -0.116000
     18 CAT          3.3340    -0.1270     0.4980 cp         1 O71      -0.097000
     19 CAU          4.4830    -0.9180     0.4790 ca         1 O71      -0.087500
     20 CAV          5.7390    -0.3460     0.6170 ca         1 O71      -0.120500
     21 CAW          5.9000     1.0280     0.7720 ca         1 O71       0.034700
     22 CAX          4.7500     1.8140     0.7850 ca         1 O71      -0.120500
     23 CAY          3.4910     1.2510     0.6530 ca         1 O71      -0.087500
     24 CAZ          7.2570     1.6380     0.9080 c3         1 O71      -0.198100
     25 CBA          7.9000     2.0760    -0.4340 c          1 O71       0.726000
     26 CBE          1.6290    -3.2320    -2.1110 c5         1 O71       0.371600
     27 CBG         -1.6290    -1.1990     3.2520 c3         1 O71      -0.081100
     28 NAG         -4.0600    -1.0220    -1.7920 nv         1 O71      -1.062900
     29 NAH         -8.3310     0.5660    -2.1010 nv         1 O71      -1.067900
     30 OBB          9.0440     2.5620    -0.3380 o          1 O71      -0.722500
     31 OBC          7.2380     1.9120    -1.4730 o          1 O71      -0.722500
     32 OBD          2.4790    -2.4070    -1.3280 os         1 O71      -0.325100
     33 OBF          0.3800    -3.2920    -1.4380 os         1 O71      -0.359100
     34 H1          -7.0120     1.7710     2.2040 hc         1 O71       0.059200
     35 H2          -5.4040     1.1300     2.5310 hc         1 O71       0.059200
     36 H3          -4.3740     3.0500     1.2950 hc         1 O71       0.037700
     37 H4          -5.9810     3.6880     0.9420 hc         1 O71       0.037700
     38 H5          -5.4020     3.6230     2.6060 hc         1 O71       0.037700
     39 H6          -1.0920     0.7130     2.4490 hc         1 O71       0.067700
     40 H7           1.1120     0.5660     1.8810 ha         1 O71       0.122000
     41 H8          -1.6280    -2.2740     0.1880 ha         1 O71       0.126000
     42 H9           4.4030    -1.9930     0.3870 ha         1 O71       0.096500
     43 H10          6.6110    -0.9890     0.6140 ha         1 O71       0.110000
     44 H11          4.8380     2.8880     0.9030 ha         1 O71       0.110000
     45 H12          2.6200     1.8950     0.6600 ha         1 O71       0.096500
     46 H13          7.2140     2.5130     1.5630 hc         1 O71       0.033700
     47 H14          7.9380     0.9350     1.3970 hc         1 O71       0.033700
     48 H15          1.4950    -2.7910    -3.1050 h2         1 O71       0.058700
     49 H16          2.0550    -4.2320    -2.1900 h2         1 O71       0.058700
     50 H17         -0.6900    -1.3130     3.7940 hc         1 O71       0.040033
     51 H18         -2.3760    -0.8030     3.9390 hc         1 O71       0.040033
     52 H19         -1.9560    -2.1840     2.9180 hc         1 O71       0.040033
     53 H20         -3.1390    -0.9730    -1.3920 hn         1 O71       0.499000
     54 H21         -4.1280    -1.3110    -2.7540 hn         1 O71       0.499000
     55 H22         -8.3390     0.2810    -3.0650 hn         1 O71       0.493000
     56 H23         -9.0410     1.2100    -1.8010 hn         1 O71       0.493000
@<TRIPOS>BOND
     1     1     2 ar  
     2     1     5 ar  
     3     1     7 1   
     4     2     3 ar  
     5     2     9 1   
     6     3     4 ar  
     7     3    28 1   
     8     4     6 ar  
     9     5     6 ar  
    10     6    29 1   
    11     7     8 1   
    12     7    34 1   
    13     7    35 1   
    14     8    36 1   
    15     8    37 1   
    16     8    38 1   
    17     9    10 3   
    18    10    11 1   
    19    11    12 1   
    20    11    27 1   
    21    11    39 1   
    22    12    13 ar  
    23    12    17 ar  
    24    13    14 ar  
    25    13    40 1   
    26    14    15 ar  
    27    14    18 1   
    28    15    16 ar  
    29    15    32 1   
    30    16    17 ar  
    31    16    33 1   
    32    17    41 1   
    33    18    19 ar  
    34    18    23 ar  
    35    19    20 ar  
    36    19    42 1   
    37    20    21 ar  
    38    20    43 1   
    39    21    22 ar  
    40    21    24 1   
    41    22    23 ar  
    42    22    44 1   
    43    23    45 1   
    44    24    25 1   
    45    24    46 1   
    46    24    47 1   
    47    25    30 1   
    48    25    31 1   
    49    26    32 1   
    50    26    33 1   
    51    26    48 1   
    52    26    49 1   
    53    27    50 1   
    54    27    51 1   
    55    27    52 1   
    56    28    53 1   
    57    28    54 1   
    58    29    55 1   
    59    29    56 1   
@<TRIPOS>SUBSTRUCTURE
     1 O71         1 TEMP              0 ****  ****    0 ROOT
