@<TRIPOS>MOLECULE
O71
   56    59     1     0     0
SMALL
No Charge or Current Charge


@<TRIPOS>ATOM
      1 C4          -5.7820     0.4640    -0.0830 ca         1 O71       0.214300
      2 C5          -4.4890     1.0120    -0.2710 ca         1 O71      -0.203000
      3 C6          -4.3280     1.8690    -1.3800 ca         1 O71       0.435900
      4 N1          -5.3280     2.1680    -2.2130 nb         1 O71      -0.341000
      5 N3          -6.7920     0.7660    -0.9260 nb         1 O71      -0.297000
      6 C2          -6.5010     1.5950    -1.9330 ca         1 O71       0.422900
      7 CAI         -6.1360    -0.4850     1.0640 c3         1 O71      -0.134700
      8 CAJ         -6.4240     0.2570     2.3860 c3         1 O71      -0.084100
      9 CAK         -3.4010     0.7160     0.6270 cg         1 O71      -0.106000
     10 CAL         -2.4970     0.4650     1.3980 c1         1 O71      -0.135100
     11 CAM         -1.4380     0.1380     2.3640 c3         1 O71       0.079700
     12 CAN         -0.3440    -0.6850     1.6770 ca         1 O71      -0.085300
     13 CAO          0.9100    -0.0860     1.3860 ca         1 O71      -0.109000
     14 CAP          1.9570    -0.8030     0.7410 cp         1 O71       0.033000
     15 CAQ          1.6680    -2.1480     0.4090 ca         1 O71       0.052100
     16 CAR          0.4630    -2.7320     0.6800 ca         1 O71       0.046100
     17 CAS         -0.5710    -2.0330     1.3090 ca         1 O71      -0.116000
     18 CAT          3.2690    -0.1480     0.4350 cp         1 O71      -0.097000
     19 CAU          4.4970    -0.8340     0.6090 ca         1 O71      -0.087500
     20 CAV          5.7240    -0.2100     0.3270 ca         1 O71      -0.120500
     21 CAW          5.7590     1.1180    -0.1370 ca         1 O71       0.034700
     22 CAX          4.5490     1.8140    -0.3100 ca         1 O71      -0.120500
     23 CAY          3.3210     1.1910    -0.0260 ca         1 O71      -0.087500
     24 CAZ          7.0910     1.7950    -0.4410 c3         1 O71      -0.198100
     25 CBA          7.4790     1.5200    -1.9000 c          1 O71       0.726000
     26 CBE          1.7670    -4.2590    -0.2380 c5         1 O71       0.371600
     27 CBG         -2.0180    -0.5600     3.6160 c3         1 O71      -0.081100
     28 NAG         -3.1470     2.4680    -1.6890 nv         1 O71      -1.062900
     29 NAH         -7.5180     1.8980    -2.7680 nv         1 O71      -1.067900
     30 OBB          8.1030     0.4980    -2.1460 o          1 O71      -0.722500
     31 OBC          7.0520     2.2750    -2.7610 o          1 O71      -0.722500
     32 OBD          2.5060    -2.9890    -0.2550 os         1 O71      -0.325100
     33 OBF          0.3970    -4.0140     0.2370 os         1 O71      -0.359100
     34 H1          -7.0170    -1.0840     0.8020 hc         1 O71       0.059200
     35 H2          -5.3270    -1.2070     1.2260 hc         1 O71       0.059200
     36 H3          -5.5450     0.8230     2.7180 hc         1 O71       0.037700
     37 H4          -7.2590     0.9570     2.2630 hc         1 O71       0.037700
     38 H5          -6.6890    -0.4570     3.1760 hc         1 O71       0.037700
     39 H6          -1.0120     1.0910     2.7040 hc         1 O71       0.067700
     40 H7           1.0820     0.9490     1.6690 ha         1 O71       0.122000
     41 H8          -1.5240    -2.5200     1.4950 ha         1 O71       0.126000
     42 H9           4.4990    -1.8570     0.9780 ha         1 O71       0.096500
     43 H10          6.6500    -0.7610     0.4690 ha         1 O71       0.110000
     44 H11          4.5570     2.8400    -0.6690 ha         1 O71       0.110000
     45 H12          2.4000     1.7480    -0.1770 ha         1 O71       0.096500
     46 H13          6.9490     2.8710    -0.2860 hc         1 O71       0.033700
     47 H14          7.8360     1.3620     0.2360 hc         1 O71       0.033700
     48 H15          1.7420    -4.6910    -1.2460 h2         1 O71       0.058700
     49 H16          2.2650    -4.9470     0.4550 h2         1 O71       0.058700
     50 H17         -1.2140    -0.8110     4.3190 hc         1 O71       0.040033
     51 H18         -2.7250     0.1000     4.1330 hc         1 O71       0.040033
     52 H19         -2.5470    -1.4840     3.3540 hc         1 O71       0.040033
     53 H20         -2.4130     2.4580    -0.9860 hn         1 O71       0.499000
     54 H21         -3.1540     3.2510    -2.3380 hn         1 O71       0.499000
     55 H22         -7.4040     2.6950    -3.3890 hn         1 O71       0.493000
     56 H23         -8.4660     1.6820    -2.4700 hn         1 O71       0.493000
@<TRIPOS>BOND
     1     1     2 ar  
     2     1     5 ar  
     3     1     7 1   
     4     2     3 ar  
     5     2     9 1   
     6     3     4 ar  
     7     3    28 1   
     8     4     6 ar  
     9     5     6 ar  
    10     6    29 1   
    11     7     8 1   
    12     7    34 1   
    13     7    35 1   
    14     8    36 1   
    15     8    37 1   
    16     8    38 1   
    17     9    10 3   
    18    10    11 1   
    19    11    12 1   
    20    11    27 1   
    21    11    39 1   
    22    12    13 ar  
    23    12    17 ar  
    24    13    14 ar  
    25    13    40 1   
    26    14    15 ar  
    27    14    18 1   
    28    15    16 ar  
    29    15    32 1   
    30    16    17 ar  
    31    16    33 1   
    32    17    41 1   
    33    18    19 ar  
    34    18    23 ar  
    35    19    20 ar  
    36    19    42 1   
    37    20    21 ar  
    38    20    43 1   
    39    21    22 ar  
    40    21    24 1   
    41    22    23 ar  
    42    22    44 1   
    43    23    45 1   
    44    24    25 1   
    45    24    46 1   
    46    24    47 1   
    47    25    30 1   
    48    25    31 1   
    49    26    32 1   
    50    26    33 1   
    51    26    48 1   
    52    26    49 1   
    53    27    50 1   
    54    27    51 1   
    55    27    52 1   
    56    28    53 1   
    57    28    54 1   
    58    29    55 1   
    59    29    56 1   
@<TRIPOS>SUBSTRUCTURE
     1 O71         1 TEMP              0 ****  ****    0 ROOT
