@<TRIPOS>MOLECULE
O72
   18    19     1     0     0
SMALL
bcc


@<TRIPOS>ATOM
      1 N2          15.8090   -25.3600   -24.7450 nb         1 O72      -0.658000
      2 N1          17.6840   -27.6890   -22.7280 nb         1 O72      -0.776000
      3 C1          17.1670   -28.8550   -23.1660 ca         1 O72       0.460200
      4 C2          16.1950   -28.9710   -24.1160 ca         1 O72      -0.303300
      5 C7          16.2090   -26.5480   -24.2580 ca         1 O72       0.231300
      6 C6          14.8840   -25.3510   -25.6700 ca         1 O72       0.396200
      7 C5          14.2890   -26.5230   -26.1770 ca         1 O72      -0.226300
      8 C4          14.6920   -27.7360   -25.6900 ca         1 O72      -0.096000
      9 C3          15.6910   -27.7800   -24.6930 ca         1 O72      -0.078300
     10 C           17.2300   -26.5650   -23.2380 ca         1 O72       0.652900
     11 H1          17.5810   -29.7450   -22.7050 h4         1 O72       0.015100
     12 H2          15.8220   -29.9390   -24.4220 ha         1 O72       0.143000
     13 H3          14.5780   -24.3830   -26.0500 h4         1 O72       0.020100
     14 H4          13.5280   -26.4510   -26.9400 ha         1 O72       0.142000
     15 H5          14.2580   -28.6580   -26.0580 ha         1 O72       0.141000
     16 H6          18.5380   -25.3970   -22.2140 hn         1 O72       0.442800
     17 H7          17.4930   -24.5500   -23.2880 hn         1 O72       0.442800
     18 N           17.7090   -25.3930   -22.7820 nv         1 O72      -0.948500
@<TRIPOS>BOND
     1     1     5 ar  
     2     1     6 ar  
     3     2     3 ar  
     4     2    10 ar  
     5     3     4 ar  
     6     3    11 1   
     7     4     9 ar  
     8     4    12 1   
     9     5     9 ar  
    10     5    10 ar  
    11     6     7 ar  
    12     6    13 1   
    13     7     8 ar  
    14     7    14 1   
    15     8     9 ar  
    16     8    15 1   
    17    10    18 1   
    18    16    18 1   
    19    17    18 1   
@<TRIPOS>SUBSTRUCTURE
     1 O72         1 TEMP              0 ****  ****    0 ROOT
