@<TRIPOS>MOLECULE
O72
   18    19     1     0     0
SMALL
No Charge or Current Charge


@<TRIPOS>ATOM
      1 N2          15.7140   -25.2840   -24.7810 nb         1 O72      -0.658000
      2 N1          17.6760   -27.6330   -22.6720 nb         1 O72      -0.776000
      3 C1          17.1860   -28.8080   -23.1260 ca         1 O72       0.394900
      4 C2          16.2000   -28.8920   -24.1240 ca         1 O72      -0.220000
      5 C7          16.1750   -26.4600   -24.2470 ca         1 O72       0.166000
      6 C6          14.7690   -25.3400   -25.7500 ca         1 O72       0.330900
      7 C5          14.2420   -26.5480   -26.2350 ca         1 O72      -0.143000
      8 C4          14.7070   -27.7610   -25.7010 ca         1 O72      -0.078000
      9 C3          15.6880   -27.7120   -24.6960 ca         1 O72      -0.013000
     10 C           17.1730   -26.5250   -23.2170 ca         1 O72       0.652900
     11 H1          17.5960   -29.7110   -22.6750 h4         1 O72       0.015100
     12 H2          15.8470   -29.8670   -24.4460 ha         1 O72       0.125000
     13 H3          14.4250   -24.3860   -26.1490 h4         1 O72       0.020100
     14 H4          13.4850   -26.5380   -27.0140 ha         1 O72       0.124000
     15 H5          14.3170   -28.7110   -26.0610 ha         1 O72       0.123000
     16 H6          18.6580   -25.6670   -22.2080 hn         1 O72       0.498000
     17 H7          17.7220   -24.5930   -23.1830 hn         1 O72       0.498000
     18 N           17.7750   -25.4580   -22.6560 nv         1 O72      -1.058900
@<TRIPOS>BOND
     1     1     5 ar  
     2     1     6 ar  
     3     2     3 ar  
     4     2    10 ar  
     5     3     4 ar  
     6     3    11 1   
     7     4     9 ar  
     8     4    12 1   
     9     5     9 ar  
    10     5    10 ar  
    11     6     7 ar  
    12     6    13 1   
    13     7     8 ar  
    14     7    14 1   
    15     8     9 ar  
    16     8    15 1   
    17    10    18 1   
    18    16    18 1   
    19    17    18 1   
@<TRIPOS>SUBSTRUCTURE
     1 O72         1 TEMP              0 ****  ****    0 ROOT
