@<TRIPOS>MOLECULE
O73
   54    56     1     0     0
SMALL
No Charge or Current Charge


@<TRIPOS>ATOM
      1 C1           4.7390     1.7220    -1.4390 ca         1 O73      -0.002000
      2 C2           3.6930     0.7840    -1.4090 ca         1 O73      -0.196000
      3 C3           3.2710     0.2210    -0.1960 ca         1 O73       0.206100
      4 C4           3.9050     0.6030     1.0040 ca         1 O73      -0.196000
      5 C5           4.9520     1.5410     0.9840 ca         1 O73      -0.002000
      6 C6           5.3780     2.1090    -0.2390 ca         1 O73      -0.234200
      7 N7           6.4930     3.1080    -0.2630 no         1 O73       0.703200
      8 O8           6.8330     3.5800    -1.3560 o          1 O73      -0.409500
      9 O9           7.0250     3.4180     0.8110 o          1 O73      -0.409500
     10 O10          2.2410    -0.6940    -0.2370 os         1 O73      -0.324100
     11 C11          1.7300    -1.3250     0.9490 c3         1 O73       0.240900
     12 C12          0.6110    -2.2560     0.5360 cc         1 O73      -0.112300
     13 C13          0.6910    -3.6100     0.2990 cd         1 O73      -0.133300
     14 N14         -0.6000    -4.0500    -0.0500 na         1 O73       0.083000
     15 C15         -1.4740    -2.9570    -0.0550 cd         1 O73      -0.184600
     16 C16         -0.7340    -1.8610     0.3070 cc         1 O73      -0.202600
     17 C17         -2.9220    -2.8910    -0.3760 c          1 O73       0.627900
     18 C18         -3.5360    -1.5600    -0.2810 cc         1 O73      -0.442200
     19 C19         -2.8230    -0.4320     0.0820 cd         1 O73       0.148800
     20 C20         -1.3360    -0.5010     0.4080 c          1 O73       0.605900
     21 C21          1.9020    -4.5120     0.3760 c3         1 O73      -0.034800
     22 C22         -0.9780    -5.4390    -0.3650 c3         1 O73       0.049900
     23 O23         -3.5800    -3.8690    -0.7020 o          1 O73      -0.555100
     24 O24         -0.6950     0.4970     0.7310 o          1 O73      -0.523100
     25 N25         -3.4670     0.7970     0.1520 nu         1 O73      -0.800200
     26 C26         -4.8840     1.0860    -0.1220 c3         1 O73       0.220800
     27 C27         -5.1760     2.5870     0.0760 c3         1 O73      -0.094400
     28 C28         -6.6520     2.9540    -0.1970 c3         1 O73      -0.076400
     29 C29         -6.9430     4.4560    -0.0000 c3         1 O73       0.150800
     30 N30         -8.3560     4.7730    -0.2720 n8         1 O73      -0.995200
     31 H1           5.0440     2.1410    -2.3970 ha         1 O73       0.148500
     32 H2           3.2050     0.4900    -2.3340 ha         1 O73       0.134500
     33 H4           3.6020     0.1860     1.9600 ha         1 O73       0.134500
     34 H5           5.4260     1.8200     1.9240 ha         1 O73       0.148500
     35 H11          2.5190    -1.9000     1.4500 h1         1 O73       0.050200
     36 H11A         1.3570    -0.5830     1.6640 h1         1 O73       0.050200
     37 H18         -4.5910    -1.5370    -0.5180 ha         1 O73       0.205000
     38 H21          1.8470    -5.1690     1.2520 hc         1 O73       0.053367
     39 H21A         1.9820    -5.1450    -0.5160 hc         1 O73       0.053367
     40 H21B         2.8330    -3.9400     0.4470 hc         1 O73       0.053367
     41 H22         -1.8630    -5.7180     0.2170 h1         1 O73       0.066033
     42 H22A        -1.2060    -5.5200    -1.4350 h1         1 O73       0.066033
     43 H22B        -0.1640    -6.1290    -0.1160 h1         1 O73       0.066033
     44 HN25        -2.8710     1.5850     0.4260 hn         1 O73       0.514000
     45 H26         -5.1310     0.8030    -1.1540 h1         1 O73       0.051700
     46 H26A        -5.5230     0.5010     0.5540 h1         1 O73       0.051700
     47 H27         -4.9200     2.8710     1.1050 hc         1 O73       0.048700
     48 H27A        -4.5310     3.1710    -0.5920 hc         1 O73       0.048700
     49 H28         -6.9090     2.6690    -1.2250 hc         1 O73       0.051200
     50 H28A        -7.2980     2.3690     0.4710 hc         1 O73       0.051200
     51 H29         -6.7080     4.7470     1.0330 h1         1 O73       0.028200
     52 H29A        -6.3130     5.0460    -0.6800 h1         1 O73       0.028200
     53 HN30        -8.9460     4.2930     0.4190 hn         1 O73       0.393500
     54 HN3A        -8.5200     5.7690    -0.0750 hn         1 O73       0.393500
@<TRIPOS>BOND
     1     1     2 ar  
     2     1     6 ar  
     3     1    31 1   
     4     2     3 ar  
     5     2    32 1   
     6     3     4 ar  
     7     3    10 1   
     8     4     5 ar  
     9     4    33 1   
    10     5     6 ar  
    11     5    34 1   
    12     6     7 1   
    13     7     8 1   
    14     7     9 1   
    15    10    11 1   
    16    11    12 1   
    17    11    35 1   
    18    11    36 1   
    19    12    13 2   
    20    12    16 1   
    21    13    14 1   
    22    13    21 1   
    23    14    15 1   
    24    14    22 1   
    25    15    16 2   
    26    15    17 1   
    27    16    20 1   
    28    17    18 1   
    29    17    23 2   
    30    18    19 2   
    31    18    37 1   
    32    19    20 1   
    33    19    25 1   
    34    20    24 2   
    35    21    38 1   
    36    21    39 1   
    37    21    40 1   
    38    22    41 1   
    39    22    42 1   
    40    22    43 1   
    41    25    26 1   
    42    25    44 1   
    43    26    27 1   
    44    26    45 1   
    45    26    46 1   
    46    27    28 1   
    47    27    47 1   
    48    27    48 1   
    49    28    29 1   
    50    28    49 1   
    51    28    50 1   
    52    29    30 1   
    53    29    51 1   
    54    29    52 1   
    55    30    53 1   
    56    30    54 1   
@<TRIPOS>SUBSTRUCTURE
     1 O73         1 TEMP              0 ****  ****    0 ROOT
