@<TRIPOS>MOLECULE
O73
   54    56     1     0     0
SMALL
abcg2


@<TRIPOS>ATOM
      1 C1           4.1500     2.1030    -1.3150 ca         1 O73      -0.002000
      2 C2           3.2110     1.0980    -1.3180 ca         1 O73      -0.196000
      3 C3           3.0450     0.2750    -0.1960 ca         1 O73       0.206100
      4 C4           3.8440     0.4800     0.9320 ca         1 O73      -0.196000
      5 C5           4.7870     1.4910     0.9360 ca         1 O73      -0.002000
      6 C6           4.9380     2.2980    -0.1820 ca         1 O73      -0.234200
      7 N7           5.9250     3.3510    -0.1730 no         1 O73       0.703200
      8 O8           6.0480     4.0290    -1.1680 o          1 O73      -0.409500
      9 O9           6.5860     3.5100     0.8290 o          1 O73      -0.409500
     10 O10          2.1160    -0.6740    -0.2970 os         1 O73      -0.324100
     11 C11          1.8110    -1.4730     0.8470 c3         1 O73       0.240900
     12 C12          0.6410    -2.3190     0.5070 cc         1 O73      -0.112300
     13 C13          0.6330    -3.6820     0.2970 cd         1 O73      -0.133300
     14 N14         -0.6510    -4.0660     0.0020 na         1 O73       0.083000
     15 C15         -1.4580    -2.9790     0.0090 cd         1 O73      -0.184600
     16 C16         -0.6910    -1.8770     0.3200 cc         1 O73      -0.202600
     17 C17         -2.9030    -2.9220    -0.2620 c          1 O73       0.627900
     18 C18         -3.4870    -1.6060    -0.1810 cc         1 O73      -0.442200
     19 C19         -2.7620    -0.4860     0.1240 cd         1 O73       0.148800
     20 C20         -1.2730    -0.5620     0.4130 c          1 O73       0.605900
     21 C21          1.7560    -4.6550     0.3530 c3         1 O73      -0.034800
     22 C22         -1.0600    -5.4300    -0.2790 c3         1 O73       0.049900
     23 O23         -3.5540    -3.9250    -0.5360 o          1 O73      -0.555100
     24 O24         -0.6620     0.4480     0.7010 o          1 O73      -0.523100
     25 N25         -3.2610     0.7440     0.1940 nu         1 O73      -0.800200
     26 C26         -4.6460     1.0670    -0.0500 c3         1 O73       0.220800
     27 C27         -4.8800     2.5650     0.0430 c3         1 O73      -0.094400
     28 C28         -6.3340     2.9280    -0.2270 c3         1 O73      -0.076400
     29 C29         -6.5780     4.4280    -0.1610 c3         1 O73       0.150800
     30 N30         -7.9780     4.7380    -0.4140 n8         1 O73      -0.995200
     31 H1           4.2610     2.7280    -2.1880 ha         1 O73       0.148500
     32 H2           2.5910     0.9380    -2.1900 ha         1 O73       0.134500
     33 H4           3.7530    -0.1390     1.8130 ha         1 O73       0.134500
     34 H5           5.3980     1.6360     1.8150 ha         1 O73       0.148500
     35 H11          2.6750    -2.0870     1.1160 h1         1 O73       0.050200
     36 H11A         1.5850    -0.8270     1.7000 h1         1 O73       0.050200
     37 H18         -4.5490    -1.5370    -0.3780 ha         1 O73       0.205000
     38 H21          1.5950    -5.4200     1.1140 hc         1 O73       0.053367
     39 H21A         1.9000    -5.1620    -0.6030 hc         1 O73       0.053367
     40 H21B         2.6870    -4.1470     0.5930 hc         1 O73       0.053367
     41 H22         -1.8500    -5.7400     0.3990 h1         1 O73       0.066033
     42 H22A        -1.4140    -5.5210    -1.3030 h1         1 O73       0.066033
     43 H22B        -0.2110    -6.0900    -0.1460 h1         1 O73       0.066033
     44 HN25        -2.6240     1.4890     0.4390 hn         1 O73       0.514000
     45 H26         -4.9330     0.7020    -1.0420 h1         1 O73       0.051700
     46 H26A        -5.2800     0.5410     0.6730 h1         1 O73       0.051700
     47 H27         -4.5890     2.9180     1.0380 hc         1 O73       0.048700
     48 H27A        -4.2330     3.0760    -0.6770 hc         1 O73       0.048700
     49 H28         -6.6340     2.5590    -1.2120 hc         1 O73       0.051200
     50 H28A        -6.9760     2.4260     0.5050 hc         1 O73       0.051200
     51 H29         -6.2130     4.8060     0.8060 h1         1 O73       0.028200
     52 H29A        -5.9750     4.9210    -0.9280 h1         1 O73       0.028200
     53 HN30        -8.5400     4.3910     0.3530 hn         1 O73       0.393500
     54 HN3A        -8.1060     5.7420    -0.4090 hn         1 O73       0.393500
@<TRIPOS>BOND
     1     1     2 ar  
     2     1     6 ar  
     3     1    31 1   
     4     2     3 ar  
     5     2    32 1   
     6     3     4 ar  
     7     3    10 1   
     8     4     5 ar  
     9     4    33 1   
    10     5     6 ar  
    11     5    34 1   
    12     6     7 1   
    13     7     8 1   
    14     7     9 1   
    15    10    11 1   
    16    11    12 1   
    17    11    35 1   
    18    11    36 1   
    19    12    13 2   
    20    12    16 1   
    21    13    14 1   
    22    13    21 1   
    23    14    15 1   
    24    14    22 1   
    25    15    16 2   
    26    15    17 1   
    27    16    20 1   
    28    17    18 1   
    29    17    23 2   
    30    18    19 2   
    31    18    37 1   
    32    19    20 1   
    33    19    25 1   
    34    20    24 2   
    35    21    38 1   
    36    21    39 1   
    37    21    40 1   
    38    22    41 1   
    39    22    42 1   
    40    22    43 1   
    41    25    26 1   
    42    25    44 1   
    43    26    27 1   
    44    26    45 1   
    45    26    46 1   
    46    27    28 1   
    47    27    47 1   
    48    27    48 1   
    49    28    29 1   
    50    28    49 1   
    51    28    50 1   
    52    29    30 1   
    53    29    51 1   
    54    29    52 1   
    55    30    53 1   
    56    30    54 1   
@<TRIPOS>SUBSTRUCTURE
     1 O73         1 TEMP              0 ****  ****    0 ROOT
