@<TRIPOS>MOLECULE
O74
   39    42     1     0     0
SMALL
No Charge or Current Charge


@<TRIPOS>ATOM
      1 Cl           4.2250    -0.3290     1.3630 cl         1 O74      -0.200000
      2 CAB          3.6190     0.9460     0.2980 ca         1 O74       0.093000
      3 CAC          4.3380     2.1510     0.2070 ca         1 O74      -0.089000
      4 CAD          3.8870     3.1790    -0.6370 ca         1 O74      -0.103000
      5 CAG          2.7200     3.0000    -1.3970 ca         1 O74      -0.094000
      6 CAF          1.9990     1.7950    -1.3070 ca         1 O74      -0.082000
      7 CAE          2.4300     0.7600    -0.4510 ca         1 O74       0.282000
      8 NAJ          1.7250    -0.4530    -0.3710 nu         1 O74      -0.922900
      9 C6           0.4020    -0.7560    -0.2680 cc         1 O74       0.712900
     10 N1          -0.3870     0.2830    -0.1520 nd         1 O74      -0.812000
     11 C5          -0.0430    -2.1430    -0.2310 ca         1 O74      -0.191000
     12 CAI          0.8340    -3.2400    -0.4060 ca         1 O74      -0.049000
     13 CAH          0.3400    -4.5550    -0.3620 ca         1 O74      -0.139000
     14 CAK         -1.0280    -4.7850    -0.1500 ca         1 O74      -0.045000
     15 CAO         -1.8990    -3.6960     0.0120 ca         1 O74      -0.142000
     16 C4          -1.4050    -2.3800    -0.0330 ca         1 O74       0.046000
     17 N3          -2.2870    -1.3240     0.1140 na         1 O74      -0.370500
     18 C2          -1.7210    -0.0610     0.0260 cd         1 O74       0.620500
     19 CAS         -2.6220     1.0120     0.1490 cc         1 O74      -0.325200
     20 CAT         -2.1280     2.3820     0.0800 cc         1 O74      -0.057000
     21 CAW         -2.9620     3.4770     0.1920 cd         1 O74      -0.295000
     22 CAY         -4.3730     3.3180     0.3840 cd         1 O74      -0.086000
     23 CAX         -4.8860     2.0460     0.4560 cc         1 O74      -0.328200
     24 CAV         -4.0880     0.8240     0.3500 c          1 O74       0.572500
     25 OAU         -4.6540    -0.2610     0.4290 o          1 O74      -0.699100
     26 HAC          5.2460     2.2850     0.7910 ha         1 O74       0.133000
     27 HAD          4.4450     4.1110    -0.7070 ha         1 O74       0.124000
     28 HAG          2.3730     3.7910    -2.0580 ha         1 O74       0.126000
     29 HAF          1.1060     1.6620    -1.9100 ha         1 O74       0.139000
     30 HAI          1.8970    -3.0920    -0.5850 ha         1 O74       0.113000
     31 HAH          1.0180    -5.3950    -0.4960 ha         1 O74       0.125000
     32 HAK         -1.4120    -5.8030    -0.1160 ha         1 O74       0.125000
     33 HAO         -2.9600    -3.8800     0.1680 ha         1 O74       0.143000
     34 HAT         -1.0680     2.5830    -0.0650 ha         1 O74       0.183000
     35 HAW1        -2.5400     4.4780     0.1330 ha         1 O74       0.176000
     36 HAY         -5.0240     4.1860     0.4710 ha         1 O74       0.168000
     37 HAX         -5.9480     1.8820     0.6010 ha         1 O74       0.188000
     38 H3          -3.2900    -1.4120     0.2560 hn         1 O74       0.444000
     39 H14          2.2830    -1.2220    -0.0150 hn         1 O74       0.515000
@<TRIPOS>BOND
     1     1     2 1   
     2     2     3 ar  
     3     2     7 ar  
     4     3     4 ar  
     5     3    26 1   
     6     4     5 ar  
     7     4    27 1   
     8     5     6 ar  
     9     5    28 1   
    10     6     7 ar  
    11     6    29 1   
    12     7     8 1   
    13     8     9 1   
    14     8    39 1   
    15     9    10 2   
    16     9    11 1   
    17    10    18 1   
    18    11    12 ar  
    19    11    16 ar  
    20    12    13 ar  
    21    12    30 1   
    22    13    14 ar  
    23    13    31 1   
    24    14    15 ar  
    25    14    32 1   
    26    15    16 ar  
    27    15    33 1   
    28    16    17 1   
    29    17    18 1   
    30    17    38 1   
    31    18    19 2   
    32    19    20 1   
    33    19    24 1   
    34    20    21 2   
    35    20    34 1   
    36    21    22 1   
    37    21    35 1   
    38    22    23 2   
    39    22    36 1   
    40    23    24 1   
    41    23    37 1   
    42    24    25 2   
@<TRIPOS>SUBSTRUCTURE
     1 O74         1 TEMP              0 ****  ****    0 ROOT
