@<TRIPOS>MOLECULE
O74
   39    42     1     0     0
SMALL
bcc


@<TRIPOS>ATOM
      1 CL           4.1480    -0.2470     1.3630 cl         1 O74      -0.108400
      2 CAB          3.5340     0.9780     0.3050 ca         1 O74       0.001400
      3 CAC          4.1800     2.2030     0.2400 ca         1 O74      -0.107000
      4 CAD          3.6820     3.1930    -0.5910 ca         1 O74      -0.121000
      5 CAG          2.5550     2.9470    -1.3640 ca         1 O74      -0.112000
      6 CAF          1.9250     1.7150    -1.3100 ca         1 O74      -0.100000
      7 CAE          2.4020     0.7160    -0.4660 ca         1 O74       0.143600
      8 NAJ          1.8060    -0.5540    -0.4080 nu         1 O74      -0.729300
      9 C6           0.4960    -0.8020    -0.2530 cc         1 O74       0.778200
     10 N1          -0.3210     0.2170    -0.1200 nd         1 O74      -0.812000
     11 C5           0.0270    -2.1720    -0.2270 ca         1 O74      -0.256300
     12 CAI          0.8340    -3.3100    -0.3690 ca         1 O74      -0.067000
     13 CAH          0.2780    -4.5660    -0.3200 ca         1 O74      -0.157000
     14 CAK         -1.1010    -4.7170    -0.1290 ca         1 O74      -0.063000
     15 CAO         -1.9170    -3.6180     0.0050 ca         1 O74      -0.160000
     16 C4          -1.3530    -2.3390    -0.0450 ca         1 O74       0.096700
     17 N3          -2.1360    -1.2300     0.0780 na         1 O74      -0.370900
     18 C2          -1.6270     0.0020     0.0340 cd         1 O74       0.620500
     19 CAS         -2.5430     1.1040     0.1590 cc         1 O74      -0.325200
     20 CAT         -2.0550     2.4240     0.1200 cc         1 O74      -0.007000
     21 CAW         -2.8970     3.5000     0.2300 cd         1 O74      -0.245000
     22 CAY         -4.2760     3.2670     0.3830 cd         1 O74      -0.036000
     23 CAX         -4.7880     1.9960     0.4230 cc         1 O74      -0.278200
     24 CAV         -3.9520     0.8450     0.3120 c          1 O74       0.572500
     25 OAU         -4.4380    -0.3340     0.3460 o          1 O74      -0.699100
     26 HAC          5.0600     2.3800     0.8430 ha         1 O74       0.151000
     27 HAD          4.1780     4.1530    -0.6340 ha         1 O74       0.142000
     28 HAG          2.1690     3.7120    -2.0240 ha         1 O74       0.144000
     29 HAF          1.0610     1.5250    -1.9300 ha         1 O74       0.157000
     30 HAI          1.9010    -3.2270    -0.5240 ha         1 O74       0.131000
     31 HAH          0.9070    -5.4380    -0.4310 ha         1 O74       0.143000
     32 HAK         -1.5310    -5.7080    -0.0890 ha         1 O74       0.143000
     33 HAO         -2.9840    -3.7300     0.1460 ha         1 O74       0.161000
     34 HAT         -0.9890     2.5740     0.0020 ha         1 O74       0.133000
     35 HAW1        -2.5110     4.5100     0.1980 ha         1 O74       0.126000
     36 HAY         -4.9510     4.1100     0.4710 ha         1 O74       0.118000
     37 HAX         -5.8540     1.8390     0.5380 ha         1 O74       0.138000
     38 H3          -3.1960    -1.2180     0.2000 hn         1 O74       0.393700
     39 H14          2.4400    -1.3370    -0.4010 hn         1 O74       0.459800
@<TRIPOS>BOND
     1     1     2 1   
     2     2     3 ar  
     3     2     7 ar  
     4     3     4 ar  
     5     3    26 1   
     6     4     5 ar  
     7     4    27 1   
     8     5     6 ar  
     9     5    28 1   
    10     6     7 ar  
    11     6    29 1   
    12     7     8 1   
    13     8     9 1   
    14     8    39 1   
    15     9    10 2   
    16     9    11 1   
    17    10    18 1   
    18    11    12 ar  
    19    11    16 ar  
    20    12    13 ar  
    21    12    30 1   
    22    13    14 ar  
    23    13    31 1   
    24    14    15 ar  
    25    14    32 1   
    26    15    16 ar  
    27    15    33 1   
    28    16    17 1   
    29    17    18 1   
    30    17    38 1   
    31    18    19 2   
    32    19    20 1   
    33    19    24 1   
    34    20    21 2   
    35    20    34 1   
    36    21    22 1   
    37    21    35 1   
    38    22    23 2   
    39    22    36 1   
    40    23    24 1   
    41    23    37 1   
    42    24    25 2   
@<TRIPOS>SUBSTRUCTURE
     1 O74         1 TEMP              0 ****  ****    0 ROOT
