@<TRIPOS>MOLECULE
O75
   64    66     1     0     0
SMALL
No Charge or Current Charge


@<TRIPOS>ATOM
      1 C1          -3.4030    -0.2750     0.8080 cp         1 O75       0.185500
      2 N2          -3.6120    -1.5360     1.2410 nb         1 O75      -0.154000
      3 C3          -4.8520    -2.0550     1.1090 ca         1 O75       0.240000
      4 N4          -5.9230    -1.4330     0.5720 nb         1 O75      -0.149000
      5 C5          -5.7310    -0.1750     0.1270 ca         1 O75       0.136300
      6 C6          -4.4740     0.4470     0.2240 ca         1 O75      -0.197000
      7 C7          -5.0490    -3.3980     1.5820 cg         1 O75       0.233000
      8 N8          -5.2020    -4.4940     1.9610 n1         1 O75      -0.411000
      9 C9          -6.9210     0.5340    -0.4990 c3         1 O75      -0.136700
     10 C10         -6.9030     0.4580    -2.0420 c3         1 O75      -0.072400
     11 C11         -8.1000     1.1750    -2.6950 c3         1 O75      -0.090100
     12 C12         -2.0190     0.2910     0.9590 cp         1 O75      -0.170500
     13 C13         -0.8880    -0.5600     1.0790 ca         1 O75       0.001000
     14 C14          0.4160    -0.0410     1.2110 ca         1 O75      -0.152600
     15 C15          0.5950     1.3560     1.2710 ca         1 O75      -0.015000
     16 C16         -0.5030     2.2300     1.1480 ca         1 O75      -0.209300
     17 C17         -1.7980     1.6910     0.9980 ca         1 O75      -0.029000
     18 C18         -0.2970     3.7470     1.2160 c3         1 O75       0.360300
     19 F19         -1.1990     4.4220     0.4670 f          1 O75      -0.111333
     20 F20         -0.4170     4.2020     2.4830 f          1 O75      -0.111333
     21 F21          0.9260     4.1220     0.7750 f          1 O75      -0.111333
     22 C22          1.5810    -0.9950     1.3520 c          1 O75       0.615700
     23 O23          1.4280    -2.0600     1.9370 o          1 O75      -0.581100
     24 N24          2.8590    -0.5830     0.8970 n          1 O75      -0.401800
     25 C25          4.0610    -1.3570     1.3080 c3         1 O75       0.139300
     26 C26          4.5940    -2.3070     0.2380 ca         1 O75      -0.116300
     27 C27          5.7890    -2.0100    -0.4490 ca         1 O75      -0.096500
     28 C28          6.2700    -2.8770    -1.4450 ca         1 O75      -0.112500
     29 C29          5.5620    -4.0490    -1.7590 ca         1 O75      -0.103000
     30 C30          4.3730    -4.3530    -1.0760 ca         1 O75      -0.112500
     31 C31          3.8910    -3.4860    -0.0810 ca         1 O75      -0.096500
     32 C32          2.9820     0.1670    -0.3870 c3         1 O75       0.095000
     33 C33          4.0210     1.3180    -0.3550 c3         1 O75       0.149800
     34 N34          4.0930     2.1350    -1.5950 n3         1 O75      -0.717600
     35 C35          4.9100     3.3550    -1.4110 c3         1 O75       0.149600
     36 C36          4.5140     1.3640    -2.7900 c3         1 O75       0.149600
     37 H6          -4.3360     1.4520    -0.1620 ha         1 O75       0.141000
     38 H9          -7.8600     0.1020    -0.1280 hc         1 O75       0.064200
     39 H9A         -6.9260     1.5860    -0.1910 hc         1 O75       0.064200
     40 H10         -5.9720     0.9010    -2.4180 hc         1 O75       0.048200
     41 H10A        -6.9030    -0.5950    -2.3530 hc         1 O75       0.048200
     42 H11         -9.0460     0.7290    -2.3670 hc         1 O75       0.036367
     43 H11A        -8.1070     2.2390    -2.4300 hc         1 O75       0.036367
     44 H11B        -8.0440     1.0940    -3.7880 hc         1 O75       0.036367
     45 H13         -1.0180    -1.6400     1.0490 ha         1 O75       0.154000
     46 H15          1.5900     1.7650     1.4350 ha         1 O75       0.139000
     47 H17         -2.6450     2.3710     0.9390 ha         1 O75       0.130000
     48 H25          4.8500    -0.6450     1.5830 h1         1 O75       0.067200
     49 H25A         3.8490    -1.9320     2.2180 h1         1 O75       0.067200
     50 H27          6.3460    -1.1050    -0.2150 ha         1 O75       0.118000
     51 H28          7.1920    -2.6410    -1.9720 ha         1 O75       0.115000
     52 H29          5.9350    -4.7210    -2.5300 ha         1 O75       0.114000
     53 H30          3.8240    -5.2610    -1.3180 ha         1 O75       0.115000
     54 H31          2.9680    -3.7300     0.4410 ha         1 O75       0.118000
     55 H32          3.2670    -0.5450    -1.1710 h1         1 O75       0.062700
     56 H32A         2.0150     0.5800    -0.6940 h1         1 O75       0.062700
     57 H33          3.7600     1.9700     0.4900 h1         1 O75       0.034700
     58 H33A         5.0110     0.8980    -0.1360 h1         1 O75       0.034700
     59 H35          5.9570     3.0980    -1.2020 h1         1 O75       0.032867
     60 H35A         4.8830     3.9810    -2.3130 h1         1 O75       0.032867
     61 H35B         4.5290     3.9560    -0.5740 h1         1 O75       0.032867
     62 H36          3.8100     0.5510    -3.0080 h1         1 O75       0.032867
     63 H36A         4.5500     2.0120    -3.6760 h1         1 O75       0.032867
     64 H36B         5.5110     0.9280    -2.6440 h1         1 O75       0.032867
@<TRIPOS>BOND
     1     1     2 ar  
     2     1     6 ar  
     3     1    12 1   
     4     2     3 ar  
     5     3     4 ar  
     6     3     7 1   
     7     4     5 ar  
     8     5     6 ar  
     9     5     9 1   
    10     6    37 1   
    11     7     8 3   
    12     9    10 1   
    13     9    38 1   
    14     9    39 1   
    15    10    11 1   
    16    10    40 1   
    17    10    41 1   
    18    11    42 1   
    19    11    43 1   
    20    11    44 1   
    21    12    13 ar  
    22    12    17 ar  
    23    13    14 ar  
    24    13    45 1   
    25    14    15 ar  
    26    14    22 1   
    27    15    16 ar  
    28    15    46 1   
    29    16    17 ar  
    30    16    18 1   
    31    17    47 1   
    32    18    19 1   
    33    18    20 1   
    34    18    21 1   
    35    22    23 2   
    36    22    24 1   
    37    24    25 1   
    38    24    32 1   
    39    25    26 1   
    40    25    48 1   
    41    25    49 1   
    42    26    27 ar  
    43    26    31 ar  
    44    27    28 ar  
    45    27    50 1   
    46    28    29 ar  
    47    28    51 1   
    48    29    30 ar  
    49    29    52 1   
    50    30    31 ar  
    51    30    53 1   
    52    31    54 1   
    53    32    33 1   
    54    32    55 1   
    55    32    56 1   
    56    33    34 1   
    57    33    57 1   
    58    33    58 1   
    59    34    35 1   
    60    34    36 1   
    61    35    59 1   
    62    35    60 1   
    63    35    61 1   
    64    36    62 1   
    65    36    63 1   
    66    36    64 1   
@<TRIPOS>SUBSTRUCTURE
     1 O75         1 TEMP              0 ****  ****    0 ROOT
