@<TRIPOS>MOLECULE
O75
   64    66     1     0     0
SMALL
bcc


@<TRIPOS>ATOM
      1 C1          -2.9270    -0.2020     0.7560 cp         1 O75       0.513800
      2 N2          -3.0520    -1.5100     0.9780 nb         1 O75      -0.680000
      3 C3          -4.2090    -2.0480     0.6550 ca         1 O75       0.766000
      4 N4          -5.2700    -1.4590     0.1400 nb         1 O75      -0.675000
      5 C5          -5.1580    -0.1520    -0.0970 ca         1 O75       0.464600
      6 C6          -3.9770     0.5190     0.2000 ca         1 O75      -0.345600
      7 C7          -4.3330    -3.4680     0.9030 cg         1 O75       0.143800
      8 N8          -4.4320    -4.5960     1.0990 n1         1 O75      -0.321800
      9 C9          -6.3190     0.5380    -0.7340 c3         1 O75      -0.136700
     10 C10         -6.3700     0.2620    -2.2400 c3         1 O75      -0.072400
     11 C11         -7.5650     0.9340    -2.8980 c3         1 O75      -0.090100
     12 C12         -1.6360     0.4160     1.1130 cp         1 O75      -0.170500
     13 C13         -0.4980    -0.3800     1.2340 ca         1 O75      -0.017000
     14 C14          0.7280     0.1900     1.5320 ca         1 O75      -0.152600
     15 C15          0.8230     1.5570     1.7640 ca         1 O75      -0.033000
     16 C16         -0.3120     2.3470     1.6740 ca         1 O75      -0.209300
     17 C17         -1.5360     1.7840     1.3390 ca         1 O75      -0.047000
     18 C18         -0.2480     3.8250     1.9150 c3         1 O75       0.724200
     19 F19         -0.5200     4.5120     0.7980 f          1 O75      -0.232633
     20 F20         -1.1400     4.2150     2.8330 f          1 O75      -0.232633
     21 F21          0.9550     4.2220     2.3370 f          1 O75      -0.232633
     22 C22          1.9230    -0.6990     1.7130 c          1 O75       0.682700
     23 O23          1.9200    -1.5080     2.6290 o          1 O75      -0.581100
     24 N24          2.9500    -0.5350     0.8550 n          1 O75      -0.468800
     25 C25          4.1790    -1.2950     1.0510 c3         1 O75       0.139300
     26 C26          4.3050    -2.4530     0.0940 ca         1 O75      -0.116300
     27 C27          5.2800    -2.4450    -0.8980 ca         1 O75      -0.114500
     28 C28          5.3910    -3.5020    -1.7930 ca         1 O75      -0.130500
     29 C29          4.5230    -4.5800    -1.7040 ca         1 O75      -0.121000
     30 C30          3.5450    -4.5970    -0.7160 ca         1 O75      -0.130500
     31 C31          3.4370    -3.5410     0.1760 ca         1 O75      -0.114500
     32 C32          2.8470     0.1960    -0.3990 c3         1 O75       0.095000
     33 C33          3.6810     1.4740    -0.4160 c3         1 O75       0.149800
     34 N34          3.5360     2.1870    -1.6690 n3         1 O75      -0.717600
     35 C35          3.9310     3.5730    -1.5340 c3         1 O75       0.149600
     36 C36          4.2540     1.5520    -2.7560 c3         1 O75       0.149600
     37 H6          -3.8910     1.5730    -0.0190 ha         1 O75       0.159000
     38 H9          -7.2410     0.1850    -0.2660 hc         1 O75       0.064200
     39 H9A         -6.2510     1.6130    -0.5570 hc         1 O75       0.064200
     40 H10         -5.4440     0.6110    -2.7040 hc         1 O75       0.048200
     41 H10A        -6.4130    -0.8180    -2.4060 hc         1 O75       0.048200
     42 H11         -8.5040     0.5640    -2.4830 hc         1 O75       0.036367
     43 H11A        -7.5410     2.0150    -2.7530 hc         1 O75       0.036367
     44 H11B        -7.5790     0.7450    -3.9720 hc         1 O75       0.036367
     45 H13         -0.5750    -1.4470     1.0720 ha         1 O75       0.172000
     46 H15          1.7770     1.9880     2.0340 ha         1 O75       0.157000
     47 H17         -2.4170     2.4100     1.2780 ha         1 O75       0.148000
     48 H25          5.0250    -0.6180     0.9240 h1         1 O75       0.067200
     49 H25A         4.2080    -1.6440     2.0810 h1         1 O75       0.067200
     50 H27          5.9600    -1.6040    -0.9730 ha         1 O75       0.136000
     51 H28          6.1540    -3.4800    -2.5600 ha         1 O75       0.133000
     52 H29          4.6070    -5.4060    -2.4000 ha         1 O75       0.132000
     53 H30          2.8670    -5.4370    -0.6390 ha         1 O75       0.133000
     54 H31          2.6750    -3.5670     0.9460 ha         1 O75       0.136000
     55 H32          3.1550    -0.4810    -1.1980 h1         1 O75       0.062700
     56 H32A         1.8080     0.4470    -0.6010 h1         1 O75       0.062700
     57 H33          3.3300     2.1220     0.3890 h1         1 O75       0.034700
     58 H33A         4.7370     1.2520    -0.1920 h1         1 O75       0.034700
     59 H35          4.9920     3.7030    -1.2730 h1         1 O75       0.032867
     60 H35A         3.7520     4.1030    -2.4700 h1         1 O75       0.032867
     61 H35B         3.3360     4.0580    -0.7580 h1         1 O75       0.032867
     62 H36          3.8930     0.5390    -2.9320 h1         1 O75       0.032867
     63 H36A         4.0950     2.1130    -3.6780 h1         1 O75       0.032867
     64 H36B         5.3400     1.4960    -2.5800 h1         1 O75       0.032867
@<TRIPOS>BOND
     1     1     2 ar  
     2     1     6 ar  
     3     1    12 1   
     4     2     3 ar  
     5     3     4 ar  
     6     3     7 1   
     7     4     5 ar  
     8     5     6 ar  
     9     5     9 1   
    10     6    37 1   
    11     7     8 3   
    12     9    10 1   
    13     9    38 1   
    14     9    39 1   
    15    10    11 1   
    16    10    40 1   
    17    10    41 1   
    18    11    42 1   
    19    11    43 1   
    20    11    44 1   
    21    12    13 ar  
    22    12    17 ar  
    23    13    14 ar  
    24    13    45 1   
    25    14    15 ar  
    26    14    22 1   
    27    15    16 ar  
    28    15    46 1   
    29    16    17 ar  
    30    16    18 1   
    31    17    47 1   
    32    18    19 1   
    33    18    20 1   
    34    18    21 1   
    35    22    23 2   
    36    22    24 1   
    37    24    25 1   
    38    24    32 1   
    39    25    26 1   
    40    25    48 1   
    41    25    49 1   
    42    26    27 ar  
    43    26    31 ar  
    44    27    28 ar  
    45    27    50 1   
    46    28    29 ar  
    47    28    51 1   
    48    29    30 ar  
    49    29    52 1   
    50    30    31 ar  
    51    30    53 1   
    52    31    54 1   
    53    32    33 1   
    54    32    55 1   
    55    32    56 1   
    56    33    34 1   
    57    33    57 1   
    58    33    58 1   
    59    34    35 1   
    60    34    36 1   
    61    35    59 1   
    62    35    60 1   
    63    35    61 1   
    64    36    62 1   
    65    36    63 1   
    66    36    64 1   
@<TRIPOS>SUBSTRUCTURE
     1 O75         1 TEMP              0 ****  ****    0 ROOT
