@<TRIPOS>MOLECULE
O76
   52    55     1     0     0
SMALL
abcg2


@<TRIPOS>ATOM
      1 C10          0.5470    -3.4800    82.5600 c3         1 O76      -0.058800
      2 C15         -3.8910    -3.5340    85.4900 ca         1 O76       0.022600
      3 C17         -3.4810    -1.6030    87.5110 c          1 O76       0.528800
      4 C20         -6.3180    -4.8590    85.4460 ca         1 O76      -0.103000
      5 C21         -6.0270    -3.9030    84.4740 ca         1 O76      -0.106000
      6 C22         -4.8110    -3.2350    84.4940 ca         1 O76      -0.088000
      7 C24         -5.6320    -0.5780    87.6720 c3         1 O76       0.168600
      8 C1           3.7790    -3.4190    83.1780 cc         1 O76      -0.407400
      9 C3           1.9010    -2.0080    84.0780 ca         1 O76      -0.181600
     10 C5           2.0480    -1.1710    85.1930 ca         1 O76      -0.043000
     11 C6           1.0070    -0.9740    86.0680 ca         1 O76      -0.107000
     12 C7          -0.2130    -1.6230    85.8470 ca         1 O76       0.188400
     13 C8          -0.3710    -2.4760    84.7300 ca         1 O76      -0.198600
     14 C9           0.6970    -2.6590    83.8130 ca         1 O76       0.019700
     15 C12         -2.3650    -1.9520    86.5460 cc         1 O76       0.486900
     16 C14         -1.6440    -3.1860    84.5830 c          1 O76       0.581600
     17 C18         -4.1630    -4.4900    86.4580 ca         1 O76      -0.088000
     18 C19         -5.3880    -5.1500    86.4370 ca         1 O76      -0.106000
     19 C25         -6.6180    -1.7210    87.7610 c3         1 O76      -0.122100
     20 C27          4.8990    -3.8370    82.3350 c          1 O76       0.590200
     21 C30          3.4660    -4.4980    83.9950 cd         1 O76       0.102000
     22 N11         -1.2350    -1.3780    86.7460 nd         1 O76      -0.597100
     23 N13         -2.6300    -2.8340    85.5320 n          1 O76      -0.252500
     24 N28          5.1660    -5.1380    82.7400 n          1 O76      -0.280200
     25 N29          4.2760    -5.5070    83.7140 na         1 O76      -0.548200
     26 O16         -1.8990    -4.0450    83.7550 o          1 O76      -0.516000
     27 O23         -4.4600    -0.9680    86.8880 os         1 O76      -0.435100
     28 O26         -3.4170    -1.8440    88.6920 o          1 O76      -0.447000
     29 O31          5.5210    -3.2640    81.4390 o          1 O76      -0.527000
     30 H1           0.4870    -4.5450    82.7870 hc         1 O76       0.060033
     31 H2          -0.3710    -3.2200    82.0360 hc         1 O76       0.060033
     32 H3           1.3870    -3.3200    81.8890 hc         1 O76       0.060033
     33 H4          -7.2710    -5.3720    85.4310 ha         1 O76       0.117000
     34 H5          -6.7530    -3.6730    83.7050 ha         1 O76       0.120000
     35 H6          -4.5750    -2.4820    83.7540 ha         1 O76       0.129500
     36 H7          -5.2930    -0.2500    88.6530 h1         1 O76       0.067700
     37 H8          -6.0370     0.2690    87.1250 h1         1 O76       0.067700
     38 H10          2.9970    -0.6760    85.3580 ha         1 O76       0.132000
     39 H11          1.1040    -0.3260    86.9290 ha         1 O76       0.141000
     40 H12         -3.4260    -4.7110    87.2190 ha         1 O76       0.129500
     41 H13         -5.6100    -5.8910    87.1930 ha         1 O76       0.120000
     42 H14         -7.5070    -1.3810    88.2960 hc         1 O76       0.052033
     43 H15         -6.9160    -2.0540    86.7660 hc         1 O76       0.052033
     44 H16         -6.1950    -2.5680    88.3000 hc         1 O76       0.052033
     45 H17          2.7220    -4.5960    84.7680 h4         1 O76       0.232000
     46 H18          5.5750    -6.8960    81.6730 h1         1 O76       0.056033
     47 H19          6.6910    -5.5300    81.4410 h1         1 O76       0.056033
     48 H20          6.7590    -6.4790    82.9430 h1         1 O76       0.056033
     49 H9           4.3710    -6.3920    84.1900 hn         1 O76       0.540000
     50 C2           3.1050    -2.1440    83.1770 c          1 O76       0.624900
     51 C32          6.1010    -6.0800    82.1710 c3         1 O76       0.102300
     52 O4           3.4800    -1.1710    82.5270 o          1 O76      -0.505100
@<TRIPOS>BOND
     1     1    14 1   
     2     1    30 1   
     3     1    31 1   
     4     1    32 1   
     5     2     6 ar  
     6     2    17 ar  
     7     2    23 1   
     8     3    15 1   
     9     3    27 1   
    10     3    28 2   
    11     4     5 ar  
    12     4    18 ar  
    13     4    33 1   
    14     5     6 ar  
    15     5    34 1   
    16     6    35 1   
    17     7    19 1   
    18     7    27 1   
    19     7    36 1   
    20     7    37 1   
    21     8    20 1   
    22     8    21 2   
    23     8    50 1   
    24     9    10 ar  
    25     9    14 ar  
    26     9    50 1   
    27    10    11 ar  
    28    10    38 1   
    29    11    12 ar  
    30    11    39 1   
    31    12    13 ar  
    32    12    22 1   
    33    13    14 ar  
    34    13    16 1   
    35    15    22 2   
    36    15    23 1   
    37    16    23 1   
    38    16    26 2   
    39    17    18 ar  
    40    17    40 1   
    41    18    41 1   
    42    19    42 1   
    43    19    43 1   
    44    19    44 1   
    45    20    24 1   
    46    20    29 2   
    47    21    25 1   
    48    21    45 1   
    49    24    25 1   
    50    24    51 1   
    51    25    49 1   
    52    46    51 1   
    53    47    51 1   
    54    48    51 1   
    55    50    52 2   
@<TRIPOS>SUBSTRUCTURE
     1 O76         1 TEMP              0 ****  ****    0 ROOT
