@<TRIPOS>MOLECULE
O76
   52    55     1     0     0
SMALL
No Charge or Current Charge


@<TRIPOS>ATOM
      1 C10          0.7480    -3.0060    82.5280 c3         1 O76      -0.058800
      2 C15         -3.8400    -3.5110    85.3730 ca         1 O76       0.022600
      3 C17         -3.6220    -1.1840    87.2430 c          1 O76       0.528800
      4 C20         -6.2320    -5.0240    85.3650 ca         1 O76      -0.103000
      5 C21         -5.8250    -4.3440    84.2060 ca         1 O76      -0.106000
      6 C22         -4.6420    -3.5850    84.2130 ca         1 O76      -0.088000
      7 C24         -6.0330    -0.7560    87.2630 c3         1 O76       0.168600
      8 C1           3.7980    -3.5900    83.3030 cc         1 O76      -0.407400
      9 C3           2.1380    -2.0630    84.4500 ca         1 O76      -0.181600
     10 C5           2.2420    -1.4590    85.7110 ca         1 O76      -0.043000
     11 C6           1.1070    -1.2940    86.5070 ca         1 O76      -0.107000
     12 C7          -0.1490    -1.7390    86.0750 ca         1 O76       0.188400
     13 C8          -0.2780    -2.3580    84.8210 ca         1 O76      -0.198600
     14 C9           0.8680    -2.4850    83.9690 ca         1 O76       0.019700
     15 C12         -2.4370    -1.8110    86.5040 cc         1 O76       0.486900
     16 C14         -1.6310    -2.9170    84.4880 c          1 O76       0.581600
     17 C18         -4.2810    -4.1700    86.5440 ca         1 O76      -0.088000
     18 C19         -5.4610    -4.9340    86.5340 ca         1 O76      -0.106000
     19 C25         -6.4750    -1.7340    88.3700 c3         1 O76      -0.122100
     20 C27          4.8900    -3.8990    82.4110 c          1 O76       0.590200
     21 C30          3.2150    -4.7200    83.8350 cd         1 O76       0.102000
     22 N11         -1.2130    -1.4590    86.9310 nd         1 O76      -0.597100
     23 N13         -2.6630    -2.6660    85.4040 n          1 O76      -0.252500
     24 N28          4.9120    -5.2920    82.3800 n          1 O76      -0.280200
     25 N29          3.9030    -5.8080    83.2790 na         1 O76      -0.548200
     26 O16         -1.8130    -3.6520    83.5260 o          1 O76      -0.516000
     27 O23         -4.8530    -1.2790    86.6180 os         1 O76      -0.435100
     28 O26         -3.4960    -0.5670    88.2990 o          1 O76      -0.447000
     29 O31          5.6480    -3.1490    81.8130 o          1 O76      -0.527000
     30 H1           0.6300    -4.0960    82.5060 hc         1 O76       0.060033
     31 H2          -0.1110    -2.5580    82.0160 hc         1 O76       0.060033
     32 H3           1.6120    -2.7550    81.9040 hc         1 O76       0.060033
     33 H4          -7.1480    -5.6110    85.3590 ha         1 O76       0.117000
     34 H5          -6.4300    -4.3990    83.3030 ha         1 O76       0.120000
     35 H6          -4.3540    -3.0430    83.3150 ha         1 O76       0.129500
     36 H7          -5.8560     0.2440    87.6810 h1         1 O76       0.067700
     37 H8          -6.8480    -0.6690    86.5320 h1         1 O76       0.067700
     38 H10          3.2080    -1.1140    86.0770 ha         1 O76       0.132000
     39 H11          1.2010    -0.8080    87.4750 ha         1 O76       0.141000
     40 H12         -3.6980    -4.1120    87.4600 ha         1 O76       0.129500
     41 H13         -5.7800    -5.4510    87.4360 ha         1 O76       0.120000
     42 H14         -7.3960    -1.3730    88.8440 hc         1 O76       0.052033
     43 H15         -6.6780    -2.7260    87.9490 hc         1 O76       0.052033
     44 H16         -5.7110    -1.8330    89.1490 hc         1 O76       0.052033
     45 H17          2.3930    -4.8330    84.5450 h4         1 O76       0.232000
     46 H18          5.7030    -7.1470    81.7300 h1         1 O76       0.056033
     47 H19          6.2140    -5.7290    80.7720 h1         1 O76       0.056033
     48 H20          6.9020    -6.0010    82.4000 h1         1 O76       0.056033
     49 H9           3.7350    -6.8200    83.3360 hn         1 O76       0.540000
     50 C2           3.4100    -2.2150    83.6550 c          1 O76       0.624900
     51 C32          5.9980    -6.0920    81.7850 c3         1 O76       0.102300
     52 O4           4.0460    -1.2280    83.3150 o          1 O76      -0.505100
@<TRIPOS>BOND
     1     1    14 1   
     2     1    30 1   
     3     1    31 1   
     4     1    32 1   
     5     2     6 ar  
     6     2    17 ar  
     7     2    23 1   
     8     3    15 1   
     9     3    27 1   
    10     3    28 2   
    11     4     5 ar  
    12     4    18 ar  
    13     4    33 1   
    14     5     6 ar  
    15     5    34 1   
    16     6    35 1   
    17     7    19 1   
    18     7    27 1   
    19     7    36 1   
    20     7    37 1   
    21     8    20 1   
    22     8    21 2   
    23     8    50 1   
    24     9    10 ar  
    25     9    14 ar  
    26     9    50 1   
    27    10    11 ar  
    28    10    38 1   
    29    11    12 ar  
    30    11    39 1   
    31    12    13 ar  
    32    12    22 1   
    33    13    14 ar  
    34    13    16 1   
    35    15    22 2   
    36    15    23 1   
    37    16    23 1   
    38    16    26 2   
    39    17    18 ar  
    40    17    40 1   
    41    18    41 1   
    42    19    42 1   
    43    19    43 1   
    44    19    44 1   
    45    20    24 1   
    46    20    29 2   
    47    21    25 1   
    48    21    45 1   
    49    24    25 1   
    50    24    51 1   
    51    25    49 1   
    52    46    51 1   
    53    47    51 1   
    54    48    51 1   
    55    50    52 2   
@<TRIPOS>SUBSTRUCTURE
     1 O76         1 TEMP              0 ****  ****    0 ROOT
