@<TRIPOS>MOLECULE
O77
   32    32     1     0     0
SMALL
abcg2


@<TRIPOS>ATOM
      1 C02         -1.5950    -2.5980     0.2760 c          1 O77       0.693000
      2 C03         -1.5850    -1.0480     0.2550 c3         1 O77       0.038500
      3 C04         -2.8380    -0.5820    -0.5060 c3         1 O77      -0.001100
      4 C05         -2.9920     0.8950    -0.5590 cc         1 O77      -0.117300
      5 C06         -3.0230     1.7740    -1.6060 cd         1 O77       0.189900
      6 C08         -3.2500     2.9650     0.1400 cc         1 O77       0.345400
      7 C12          1.9660     0.1150    -0.1640 c3         1 O77      -0.055400
      8 C13          3.2820    -0.0550     0.5960 c3         1 O77       0.015500
      9 C15          4.4330     0.6070    -0.2020 c          1 O77       0.692000
     10 N07         -3.1850     3.0590    -1.1620 nd         1 O77      -0.698000
     11 N09         -3.1420     1.6830     0.5480 na         1 O77      -0.293500
     12 N10         -0.4090    -0.4420    -0.3270 n7         1 O77      -0.865400
     13 N14          3.1270     0.4040     1.9680 n8         1 O77      -0.989200
     14 O01         -2.2960    -3.1360     1.1570 o          1 O77      -0.738000
     15 O16          4.6700     0.1180    -1.3270 o          1 O77      -0.750500
     16 O17          5.0250     1.5690     0.3260 o          1 O77      -0.750500
     17 O18         -0.9440    -3.1760    -0.6170 o          1 O77      -0.738000
     18 H031        -1.6670    -0.6950     1.2900 h1         1 O77       0.029700
     19 H041        -2.7940    -0.9510    -1.5340 hc         1 O77       0.050700
     20 H042        -3.7200    -1.0390    -0.0490 hc         1 O77       0.050700
     21 H061        -2.9340     1.5400    -2.6570 h4         1 O77       0.024100
     22 H081        -3.3790     3.7820     0.8340 h5         1 O77       0.028100
     23 H112         1.0590    -1.6540     0.6500 h1         1 O77       0.028200
     24 H111         0.5950    -0.1700     1.4650 h1         1 O77       0.028200
     25 H121         2.1070    -0.2600    -1.1810 hc         1 O77       0.039200
     26 H122         1.7300     1.1820    -0.2580 hc         1 O77       0.039200
     27 H131         3.4980    -1.1310     0.6370 h1         1 O77       0.041700
     28 H091        -3.1610     1.3680     1.5060 hn         1 O77       0.347000
     29 H2          -0.2470    -0.8800    -1.2280 hn         1 O77       0.411000
     30 H3           4.0170     0.3090     2.4420 hn         1 O77       0.369500
     31 H141         2.9630     1.4050     1.9490 hn         1 O77       0.369500
     32 C11          0.7880    -0.6000     0.4790 c3         1 O77       0.166800
@<TRIPOS>BOND
     1     1     2 1   
     2     1    14 1   
     3     1    17 1   
     4     2     3 1   
     5     2    12 1   
     6     2    18 1   
     7     3     4 1   
     8     3    19 1   
     9     3    20 1   
    10     4     5 2   
    11     4    11 1   
    12     5    10 1   
    13     5    21 1   
    14     6    10 2   
    15     6    11 1   
    16     6    22 1   
    17     7     8 1   
    18     7    25 1   
    19     7    26 1   
    20     7    32 1   
    21     8     9 1   
    22     8    13 1   
    23     8    27 1   
    24     9    15 1   
    25     9    16 1   
    26    11    28 1   
    27    12    29 1   
    28    12    32 1   
    29    13    30 1   
    30    13    31 1   
    31    23    32 1   
    32    24    32 1   
@<TRIPOS>SUBSTRUCTURE
     1 O77         1 TEMP              0 ****  ****    0 ROOT
