@<TRIPOS>MOLECULE
O77
   32    32     1     0     0
SMALL
No Charge or Current Charge


@<TRIPOS>ATOM
      1 C02         -1.6010    -2.5700     0.2940 c          1 O77       0.693000
      2 C03         -1.6210    -0.9910     0.2120 c3         1 O77       0.038500
      3 C04         -2.8470    -0.5200    -0.6130 c3         1 O77      -0.001100
      4 C05         -3.1120     0.9640    -0.5270 cc         1 O77      -0.117300
      5 C06         -2.8300     1.9590    -1.4300 cd         1 O77       0.189900
      6 C08         -3.8090     2.9380     0.2270 cc         1 O77       0.345400
      7 C12          2.0690     0.1260    -0.1590 c3         1 O77      -0.055400
      8 C13          3.4060    -0.1020     0.5970 c3         1 O77       0.015500
      9 C15          4.6290     0.3240    -0.3180 c          1 O77       0.692000
     10 N07         -3.2690     3.1820    -0.9580 nd         1 O77      -0.698000
     11 N09         -3.7380     1.6000     0.5230 na         1 O77      -0.293500
     12 N10         -0.3590    -0.3770    -0.3370 n7         1 O77      -0.865400
     13 N14          3.3650     0.5150     1.9740 n8         1 O77      -0.989200
     14 O01         -1.7530    -3.0990     1.3880 o          1 O77      -0.738000
     15 O16          5.3440    -0.5560    -0.7770 o          1 O77      -0.750500
     16 O17          4.8850     1.5160    -0.4350 o          1 O77      -0.750500
     17 O18         -1.3810    -3.2100    -0.7280 o          1 O77      -0.738000
     18 H031        -1.7720    -0.6280     1.2380 h1         1 O77       0.029700
     19 H041        -2.7140    -0.8120    -1.6620 hc         1 O77       0.050700
     20 H042        -3.7340    -1.0590    -0.2600 hc         1 O77       0.050700
     21 H061        -2.3430     1.8630    -2.3930 h4         1 O77       0.024100
     22 H081        -4.2590     3.6630     0.8960 h5         1 O77       0.028100
     23 H112         1.0650    -1.6250     0.6280 h1         1 O77       0.028200
     24 H111         0.6830    -0.1250     1.4960 h1         1 O77       0.028200
     25 H121         2.1790    -0.2680    -1.1770 hc         1 O77       0.039200
     26 H122         1.8810     1.2030    -0.2570 hc         1 O77       0.039200
     27 H131         3.5070    -1.1860     0.7450 h1         1 O77       0.041700
     28 H091        -4.0880     1.1720     1.3710 hn         1 O77       0.347000
     29 H2          -0.1760    -0.8140    -1.2490 hn         1 O77       0.411000
     30 H3           4.2420     0.2970     2.4630 hn         1 O77       0.369500
     31 H141         3.4030     1.5360     1.8690 hn         1 O77       0.369500
     32 C11          0.8470    -0.5560     0.4980 c3         1 O77       0.166800
@<TRIPOS>BOND
     1     1     2 1   
     2     1    14 1   
     3     1    17 1   
     4     2     3 1   
     5     2    12 1   
     6     2    18 1   
     7     3     4 1   
     8     3    19 1   
     9     3    20 1   
    10     4     5 2   
    11     4    11 1   
    12     5    10 1   
    13     5    21 1   
    14     6    10 2   
    15     6    11 1   
    16     6    22 1   
    17     7     8 1   
    18     7    25 1   
    19     7    26 1   
    20     7    32 1   
    21     8     9 1   
    22     8    13 1   
    23     8    27 1   
    24     9    15 1   
    25     9    16 1   
    26    11    28 1   
    27    12    29 1   
    28    12    32 1   
    29    13    30 1   
    30    13    31 1   
    31    23    32 1   
    32    24    32 1   
@<TRIPOS>SUBSTRUCTURE
     1 O77         1 TEMP              0 ****  ****    0 ROOT
