@<TRIPOS>MOLECULE
O78
   18    18     1     0     0
SMALL
abcg2


@<TRIPOS>ATOM
      1 C4          35.4790     1.8880    -5.6430 c6         1 O78      -0.068400
      2 C5          34.1100     1.3160    -5.3010 c6         1 O78      -0.170700
      3 C6          33.1010     1.6510    -6.3680 ce         1 O78       0.479600
      4 C2          34.8970     1.5520    -8.0630 cf         1 O78      -0.127400
      5 C1          35.3270     1.5100    -9.5320 c          1 O78       0.708200
      6 C3          35.9500     1.4020    -7.0060 c6         1 O78      -0.044200
      7 C7          33.6040     1.6930    -7.7400 ce         1 O78      -0.332600
      8 N10         31.8580     1.8540    -6.1650 n2         1 O78      -0.789100
      9 O8          34.4350     1.6430   -10.3910 o          1 O78      -0.717500
     10 O9          36.5440     1.3330    -9.7330 o          1 O78      -0.717500
     11 H1          36.2020     1.6140    -4.8730 hc         1 O78       0.025700
     12 H2          35.4230     2.9810    -5.6450 hc         1 O78       0.025700
     13 H5          36.2450     0.3480    -6.9430 hc         1 O78       0.055700
     14 H6          36.8510     1.9370    -7.3100 hc         1 O78       0.055700
     15 H7          32.8640     1.8230    -8.5220 ha         1 O78       0.212000
     16 H9          31.6480     1.7900    -5.1710 hn         1 O78       0.336400
     17 H3          33.7590     1.6680    -4.3290 hc         1 O78       0.034200
     18 H8          34.1790     0.2240    -5.2350 hc         1 O78       0.034200
@<TRIPOS>BOND
     1     1     2 1   
     2     1     6 1   
     3     1    11 1   
     4     1    12 1   
     5     2     3 1   
     6     2    17 1   
     7     2    18 1   
     8     3     7 1   
     9     3     8 2   
    10     4     5 1   
    11     4     6 1   
    12     4     7 2   
    13     5     9 1   
    14     5    10 1   
    15     6    13 1   
    16     6    14 1   
    17     7    15 1   
    18     8    16 1   
@<TRIPOS>SUBSTRUCTURE
     1 O78         1 TEMP              0 ****  ****    0 ROOT
