@<TRIPOS>MOLECULE
O78
   18    18     1     0     0
SMALL
No Charge or Current Charge


@<TRIPOS>ATOM
      1 C4          35.4990     1.8920    -5.6470 c6         1 O78      -0.068400
      2 C5          34.0960     1.3680    -5.2620 c6         1 O78      -0.170700
      3 C6          33.0820     1.6140    -6.3760 ce         1 O78       0.479600
      4 C2          34.9000     1.5260    -8.1170 cf         1 O78      -0.127400
      5 C1          35.3500     1.5890    -9.5650 c          1 O78       0.708200
      6 C3          35.9610     1.3190    -7.0090 c6         1 O78      -0.044200
      7 C7          33.5830     1.6640    -7.7480 ce         1 O78      -0.332600
      8 N10         31.8160     1.7370    -6.1710 n2         1 O78      -0.789100
      9 O8          34.5080     1.7760   -10.4330 o          1 O78      -0.717500
     10 O9          36.5360     1.4390    -9.8210 o          1 O78      -0.717500
     11 H1          36.2260     1.6350    -4.8640 hc         1 O78       0.025700
     12 H2          35.4740     2.9890    -5.7040 hc         1 O78       0.025700
     13 H5          36.1680     0.2450    -6.9080 hc         1 O78       0.055700
     14 H6          36.9100     1.7950    -7.2890 hc         1 O78       0.055700
     15 H7          32.8270     1.8190    -8.5160 ha         1 O78       0.212000
     16 H9          31.6340     1.6590    -5.1610 hn         1 O78       0.336400
     17 H3          33.7680     1.8690    -4.3410 hc         1 O78       0.034200
     18 H8          34.1390     0.2940    -5.0380 hc         1 O78       0.034200
@<TRIPOS>BOND
     1     1     2 1   
     2     1     6 1   
     3     1    11 1   
     4     1    12 1   
     5     2     3 1   
     6     2    17 1   
     7     2    18 1   
     8     3     7 1   
     9     3     8 2   
    10     4     5 1   
    11     4     6 1   
    12     4     7 2   
    13     5     9 1   
    14     5    10 1   
    15     6    13 1   
    16     6    14 1   
    17     7    15 1   
    18     8    16 1   
@<TRIPOS>SUBSTRUCTURE
     1 O78         1 TEMP              0 ****  ****    0 ROOT
