@<TRIPOS>MOLECULE
O7A
   19    18     1     0     0
SMALL
No Charge or Current Charge


@<TRIPOS>ATOM
      1 CBG         51.8830   -23.8890    -7.3870 c3         1 O7A       0.158100
      2 CBI         51.0420   -22.2810    -9.1720 c3         1 O7A      -0.011500
      3 CBJ         50.6270   -21.1240    -8.1910 c3         1 O7A       0.203300
      4 CBL         49.1730   -21.2400    -7.6780 c3         1 O7A      -0.080100
      5 CBM         52.4120   -22.0140    -9.9230 c          1 O7A       0.693000
      6 NBH         50.9610   -23.6470    -8.5160 n7         1 O7A      -0.857400
      7 OBK         50.7800   -19.8570    -8.8340 oh         1 O7A      -0.740000
      8 HBG2        51.7790   -24.9210    -7.0260 h1         1 O7A       0.014033
      9 HBG3        52.9270   -23.7400    -7.6930 h1         1 O7A       0.014033
     10 HBG1        51.6680   -23.2160    -6.5480 h1         1 O7A       0.014033
     11 HBI1        50.2960   -22.2650    -9.9790 h1         1 O7A       0.049700
     12 HBJ1        51.2960   -21.1520    -7.3200 h1         1 O7A       0.006700
     13 HBL2        48.4620   -21.2410    -8.5130 hc         1 O7A       0.020367
     14 HBL3        49.0330   -22.1640    -7.1060 hc         1 O7A       0.020367
     15 HBK1        51.6800   -19.9330    -9.2590 ho         1 O7A       0.510000
     16 H2          51.1890   -24.3420    -9.2420 hn         1 O7A       0.411000
     17 OXT         52.8520   -22.9010   -10.6440 o          1 O7A      -0.723000
     18 OBN         52.9810   -20.9380    -9.7750 o          1 O7A      -0.723000
     19 HBL1        48.9280   -20.3990    -7.0180 hc         1 O7A       0.020367
@<TRIPOS>BOND
     1     1     6 1   
     2     1     8 1   
     3     1     9 1   
     4     1    10 1   
     5     2     3 1   
     6     2     5 1   
     7     2     6 1   
     8     2    11 1   
     9     3     4 1   
    10     3     7 1   
    11     3    12 1   
    12     4    13 1   
    13     4    14 1   
    14     4    19 1   
    15     5    17 1   
    16     5    18 1   
    17     6    16 1   
    18     7    15 1   
@<TRIPOS>SUBSTRUCTURE
     1 O7A         1 TEMP              0 ****  ****    0 ROOT
