@<TRIPOS>MOLECULE
O7A
   19    18     1     0     0
SMALL
bcc


@<TRIPOS>ATOM
      1 CBG         51.7350   -23.8420    -7.4470 c3         1 O7A       0.158100
      2 CBI         51.0680   -22.2530    -9.1890 c3         1 O7A      -0.011500
      3 CBJ         50.6980   -21.1260    -8.2050 c3         1 O7A       0.180100
      4 CBL         49.3180   -21.3160    -7.6030 c3         1 O7A      -0.080100
      5 CBM         52.4570   -22.0270    -9.8570 c          1 O7A       0.903600
      6 NBH         50.8960   -23.5700    -8.6000 n7         1 O7A      -0.802200
      7 OBK         50.7300   -19.8800    -8.8640 oh         1 O7A      -0.677800
      8 HBG2        51.6870   -24.9080    -7.2200 h1         1 O7A       0.014033
      9 HBG3        52.7920   -23.5800    -7.5740 h1         1 O7A       0.014033
     10 HBG1        51.3680   -23.3160    -6.5640 h1         1 O7A       0.014033
     11 HBI1        50.3360   -22.1830   -10.0080 h1         1 O7A       0.049700
     12 HBJ1        51.4290   -21.1300    -7.3780 h1         1 O7A       0.006700
     13 HBL2        48.5590   -21.4120    -8.3830 hc         1 O7A       0.020367
     14 HBL3        49.2730   -22.2080    -6.9810 hc         1 O7A       0.020367
     15 HBK1        51.5490   -19.9490    -9.4130 ho         1 O7A       0.471000
     16 H2          51.1140   -24.2510    -9.3140 hn         1 O7A       0.355800
     17 OXT         53.1140   -23.0250   -10.1800 o          1 O7A      -0.828300
     18 OBN         52.7920   -20.8270   -10.0670 o          1 O7A      -0.828300
     19 HBL1        49.0540   -20.4610    -6.9770 hc         1 O7A       0.020367
@<TRIPOS>BOND
     1     1     6 1   
     2     1     8 1   
     3     1     9 1   
     4     1    10 1   
     5     2     3 1   
     6     2     5 1   
     7     2     6 1   
     8     2    11 1   
     9     3     4 1   
    10     3     7 1   
    11     3    12 1   
    12     4    13 1   
    13     4    14 1   
    14     4    19 1   
    15     5    17 1   
    16     5    18 1   
    17     6    16 1   
    18     7    15 1   
@<TRIPOS>SUBSTRUCTURE
     1 O7A         1 TEMP              0 ****  ****    0 ROOT
