@<TRIPOS>MOLECULE
O7B
   46    50     1     0     0
SMALL
No Charge or Current Charge


@<TRIPOS>ATOM
      1 C01        158.6110   131.4300   158.4090 c6         1 O7B      -0.071400
      2 C02        157.8060   130.2220   157.8890 c6         1 O7B      -0.067400
      3 C03        156.4820   130.0970   158.6800 c6         1 O7B      -0.039400
      4 C04        155.5970   128.9600   158.1410 c6         1 O7B       0.109000
      5 C06        153.5870   130.0270   159.1280 c          1 O7B       0.562600
      6 C08        154.2940   131.3560   158.9420 ca         1 O7B      -0.144600
      7 C09        155.6890   131.4070   158.7070 ca         1 O7B      -0.041300
      8 C10        156.3340   132.6540   158.5150 ca         1 O7B      -0.082300
      9 C11        155.5810   133.8410   158.5730 ca         1 O7B      -0.089000
     10 C12        154.2020   133.7950   158.8240 ca         1 O7B      -0.122000
     11 C13        153.5600   132.5600   159.0050 ca         1 O7B      -0.055000
     12 C14        157.8330   132.7470   158.1900 c6         1 O7B      -0.029100
     13 C15        153.7340   127.5020   159.1700 c6         1 O7B       0.090700
     14 C16        153.2690   127.3020   160.6640 c6         1 O7B       0.144800
     15 C19        155.6890   125.9630   159.8240 c6         1 O7B      -0.105400
     16 C20        154.5630   126.2270   158.7700 c6         1 O7B      -0.078700
     17 C21        153.5910   125.0130   158.8410 c6         1 O7B      -0.105400
     18 C22        152.9820   124.9000   160.2750 c6         1 O7B       0.144300
     19 N05        154.3640   128.8570   158.9660 n          1 O7B      -0.402800
     20 N17        153.5790   125.9280   161.1830 n3         1 O7B      -0.678600
     21 O07        152.4070   129.9720   159.4500 o          1 O7B      -0.571000
     22 H1         158.8210   131.2980   159.4800 hc         1 O7B       0.046200
     23 H2         159.5860   131.4830   157.9050 hc         1 O7B       0.046200
     24 H3         157.6000   130.3440   156.8170 hc         1 O7B       0.044700
     25 H4         158.3980   129.3020   157.9970 hc         1 O7B       0.044700
     26 H5         156.7400   129.8480   159.7190 hc         1 O7B       0.071700
     27 H6         156.1900   128.0400   158.1390 h1         1 O7B       0.048700
     28 H7         155.3140   129.1710   157.1000 h1         1 O7B       0.048700
     29 H8         156.0670   134.8020   158.4190 ha         1 O7B       0.112000
     30 H9         153.6270   134.7170   158.8680 ha         1 O7B       0.118000
     31 H10        152.4870   132.5420   159.1890 ha         1 O7B       0.139000
     32 H11        157.9400   133.0510   157.1400 hc         1 O7B       0.049700
     33 H12        158.2970   133.5460   158.7850 hc         1 O7B       0.049700
     34 H13        152.8290   127.4890   158.5450 h1         1 O7B       0.057700
     35 H14        153.7600   128.0560   161.2980 h1         1 O7B       0.073700
     36 H15        152.1900   127.5030   160.7260 h1         1 O7B       0.073700
     37 H16        155.3140   124.7420   161.5980 h1         1 O7B       0.055700
     38 H17        155.5100   126.4620   161.9430 h1         1 O7B       0.055700
     39 H18        156.2730   125.0770   159.5400 hc         1 O7B       0.045950
     40 H19        156.4010   126.7960   159.8700 hc         1 O7B       0.045950
     41 H20        154.9670   126.3030   157.7520 hc         1 O7B       0.054700
     42 H21        152.7870   125.1190   158.1000 hc         1 O7B       0.045950
     43 H22        154.1230   124.0860   158.5880 hc         1 O7B       0.045950
     44 H23        151.8910   125.0300   160.2180 h1         1 O7B       0.055700
     45 H24        153.1600   123.8880   160.6670 h1         1 O7B       0.055700
     46 C18        155.0610   125.7490   161.2350 c6         1 O7B       0.144300
@<TRIPOS>BOND
     1     1     2 1   
     2     1    12 1   
     3     1    22 1   
     4     1    23 1   
     5     2     3 1   
     6     2    24 1   
     7     2    25 1   
     8     3     4 1   
     9     3     7 1   
    10     3    26 1   
    11     4    19 1   
    12     4    27 1   
    13     4    28 1   
    14     5     6 1   
    15     5    19 1   
    16     5    21 2   
    17     6     7 ar  
    18     6    11 ar  
    19     7     8 ar  
    20     8     9 ar  
    21     8    12 1   
    22     9    10 ar  
    23     9    29 1   
    24    10    11 ar  
    25    10    30 1   
    26    11    31 1   
    27    12    32 1   
    28    12    33 1   
    29    13    14 1   
    30    13    16 1   
    31    13    19 1   
    32    13    34 1   
    33    14    20 1   
    34    14    35 1   
    35    14    36 1   
    36    15    16 1   
    37    15    39 1   
    38    15    40 1   
    39    15    46 1   
    40    16    17 1   
    41    16    41 1   
    42    17    18 1   
    43    17    42 1   
    44    17    43 1   
    45    18    20 1   
    46    18    44 1   
    47    18    45 1   
    48    20    46 1   
    49    37    46 1   
    50    38    46 1   
@<TRIPOS>SUBSTRUCTURE
     1 O7B         1 TEMP              0 ****  ****    0 ROOT
