@<TRIPOS>MOLECULE
O7B
   46    50     1     0     0
SMALL
abcg2


@<TRIPOS>ATOM
      1 C01        158.5930   131.4350   158.4250 c6         1 O7B      -0.071400
      2 C02        157.8330   130.2040   157.9370 c6         1 O7B      -0.067400
      3 C03        156.5250   130.0660   158.7080 c6         1 O7B      -0.039400
      4 C04        155.6370   128.9580   158.1710 c6         1 O7B       0.109000
      5 C06        153.7040   129.9530   159.2560 c          1 O7B       0.562600
      6 C08        154.3630   131.2690   158.9940 ca         1 O7B      -0.144600
      7 C09        155.7360   131.3510   158.7300 ca         1 O7B      -0.041300
      8 C10        156.3310   132.5940   158.4930 ca         1 O7B      -0.082300
      9 C11        155.5330   133.7390   158.5390 ca         1 O7B      -0.089000
     10 C12        154.1730   133.6610   158.8110 ca         1 O7B      -0.122000
     11 C13        153.5840   132.4240   159.0360 ca         1 O7B      -0.055000
     12 C14        157.7970   132.7080   158.1380 c6         1 O7B      -0.029100
     13 C15        153.7230   127.5410   159.1640 c6         1 O7B       0.090700
     14 C16        153.2500   127.3260   160.6380 c6         1 O7B       0.144800
     15 C19        155.6730   126.0410   159.7930 c6         1 O7B      -0.105400
     16 C20        154.5490   126.3060   158.7760 c6         1 O7B      -0.078700
     17 C21        153.5860   125.1090   158.8000 c6         1 O7B      -0.105400
     18 C22        152.9960   124.9790   160.2310 c6         1 O7B       0.144300
     19 N05        154.4260   128.8310   158.9940 n          1 O7B      -0.402800
     20 N17        153.5710   125.9850   161.1350 n3         1 O7B      -0.678600
     21 O07        152.5490   129.8990   159.6950 o          1 O7B      -0.571000
     22 H1         158.7670   131.3420   159.5020 hc         1 O7B       0.046200
     23 H2         159.5720   131.4990   157.9480 hc         1 O7B       0.046200
     24 H3         157.6230   130.3000   156.8660 hc         1 O7B       0.044700
     25 H4         158.4310   129.2990   158.0700 hc         1 O7B       0.044700
     26 H5         156.7710   129.8050   159.7470 hc         1 O7B       0.071700
     27 H6         156.1810   128.0220   158.1880 h1         1 O7B       0.048700
     28 H7         155.3670   129.1650   157.1280 h1         1 O7B       0.048700
     29 H8         155.9890   134.7050   158.3530 ha         1 O7B       0.112000
     30 H9         153.5740   134.5620   158.8430 ha         1 O7B       0.118000
     31 H10        152.5260   132.3390   159.2440 ha         1 O7B       0.139000
     32 H11        157.8700   132.9420   157.0700 hc         1 O7B       0.049700
     33 H12        158.2320   133.5600   158.6650 hc         1 O7B       0.049700
     34 H13        152.8420   127.5720   158.5140 h1         1 O7B       0.057700
     35 H14        153.7370   128.0540   161.2870 h1         1 O7B       0.073700
     36 H15        152.1740   127.4760   160.7100 h1         1 O7B       0.073700
     37 H16        155.2420   124.8170   161.5620 h1         1 O7B       0.055700
     38 H17        155.4230   126.5360   161.9110 h1         1 O7B       0.055700
     39 H18        156.2330   125.1580   159.4780 hc         1 O7B       0.045950
     40 H19        156.3790   126.8700   159.8290 hc         1 O7B       0.045950
     41 H20        154.9540   126.4160   157.7710 hc         1 O7B       0.054700
     42 H21        152.7930   125.2530   158.0630 hc         1 O7B       0.045950
     43 H22        154.1340   124.2060   158.5210 hc         1 O7B       0.045950
     44 H23        151.9130   125.1190   160.2190 h1         1 O7B       0.055700
     45 H24        153.1970   123.9910   160.6480 h1         1 O7B       0.055700
     46 C18        155.0290   125.8200   161.1870 c6         1 O7B       0.144300
@<TRIPOS>BOND
     1     1     2 1   
     2     1    12 1   
     3     1    22 1   
     4     1    23 1   
     5     2     3 1   
     6     2    24 1   
     7     2    25 1   
     8     3     4 1   
     9     3     7 1   
    10     3    26 1   
    11     4    19 1   
    12     4    27 1   
    13     4    28 1   
    14     5     6 1   
    15     5    19 1   
    16     5    21 2   
    17     6     7 ar  
    18     6    11 ar  
    19     7     8 ar  
    20     8     9 ar  
    21     8    12 1   
    22     9    10 ar  
    23     9    29 1   
    24    10    11 ar  
    25    10    30 1   
    26    11    31 1   
    27    12    32 1   
    28    12    33 1   
    29    13    14 1   
    30    13    16 1   
    31    13    19 1   
    32    13    34 1   
    33    14    20 1   
    34    14    35 1   
    35    14    36 1   
    36    15    16 1   
    37    15    39 1   
    38    15    40 1   
    39    15    46 1   
    40    16    17 1   
    41    16    41 1   
    42    17    18 1   
    43    17    42 1   
    44    17    43 1   
    45    18    20 1   
    46    18    44 1   
    47    18    45 1   
    48    20    46 1   
    49    37    46 1   
    50    38    46 1   
@<TRIPOS>SUBSTRUCTURE
     1 O7B         1 TEMP              0 ****  ****    0 ROOT
