@<TRIPOS>MOLECULE
O7C
   51    54     1     0     0
SMALL
No Charge or Current Charge


@<TRIPOS>ATOM
      1 C10          1.1090    -3.2280    85.0280 ca         1 O7C      -0.139600
      2 C13          0.6990    -1.7320    86.9330 ca         1 O7C      -0.125000
      3 C15         -1.1710    -2.7820    85.7670 ca         1 O7C      -0.000400
      4 C24         -3.8210    -4.7070    85.5510 ca         1 O7C      -0.110300
      5 C26         -3.8200    -6.3110    87.3960 ca         1 O7C      -0.107000
      6 C28         -4.4300    -7.0420    85.1590 ca         1 O7C      -0.107000
      7 C1           5.9560    -4.4010    84.6190 c6         1 O7C      -0.072200
      8 C2           5.8970    -4.7550    86.1190 c6         1 O7C      -0.063400
      9 C3           4.7270    -5.7240    86.3760 c6         1 O7C      -0.182400
     10 C4           3.3880    -5.1590    85.8870 c          1 O7C       0.602300
     11 C5           3.4130    -4.3540    84.6320 ce         1 O7C      -0.480400
     12 C6           4.5930    -4.0070    84.0720 c2         1 O7C       0.272900
     13 C9           2.1360    -3.8180    84.0890 c          1 O7C       0.639900
     14 C12          1.5870    -2.4040    86.0800 ca         1 O7C      -0.061000
     15 C14         -0.6670    -1.9710    86.7850 ca         1 O7C       0.028600
     16 C16         -0.2970    -3.3970    84.8320 ca         1 O7C      -0.000300
     17 C19         -2.9330    -1.5430    86.6710 c          1 O7C       0.588000
     18 C25         -3.6220    -5.0050    86.9170 ca         1 O7C      -0.099000
     19 C27         -4.2220    -7.3310    86.5180 ca         1 O7C      -0.109000
     20 C29         -4.2330    -5.7350    84.6790 ca         1 O7C      -0.099000
     21 N18         -1.7420    -1.2110    87.3140 n          1 O7C      -0.296000
     22 N20         -2.5830    -2.4940    85.7020 n          1 O7C      -0.298000
     23 O7           4.6760    -3.2760    82.9560 oh         1 O7C      -0.543100
     24 O11          2.0540    -3.6270    82.8800 o          1 O7C      -0.603100
     25 O21         -4.0530    -1.1270    86.9330 o          1 O7C      -0.565000
     26 H1           1.0690    -1.0280    87.6750 ha         1 O7C       0.125000
     27 H2          -1.6270    -4.9190    84.0230 hc         1 O7C       0.052700
     28 H3          -1.2600    -3.6020    82.8870 hc         1 O7C       0.052700
     29 H4          -0.0940    -4.8890    83.2210 hc         1 O7C       0.052700
     30 H5          -2.6480    -0.4170    89.0590 h1         1 O7C       0.052367
     31 H6          -0.9260    -0.8490    89.2300 h1         1 O7C       0.052367
     32 H7          -1.3910     0.6140    88.3130 h1         1 O7C       0.052367
     33 H8          -3.6620    -6.5330    88.4490 ha         1 O7C       0.113500
     34 H9          -4.7450    -7.8290    84.4780 ha         1 O7C       0.113500
     35 H10          6.3290    -5.2630    84.0490 hc         1 O7C       0.080200
     36 H11          6.6790    -3.5890    84.4600 hc         1 O7C       0.080200
     37 H12          6.8480    -5.2020    86.4430 hc         1 O7C       0.055700
     38 H13          5.7570    -3.8400    86.7130 hc         1 O7C       0.055700
     39 H14          4.9170    -6.6220    85.7730 hc         1 O7C       0.073200
     40 H15          4.6460    -6.0380    87.4250 hc         1 O7C       0.073200
     41 H16          2.6550    -2.2310    86.1950 ha         1 O7C       0.118000
     42 H17         -3.3620    -3.3370    83.9380 h1         1 O7C       0.074200
     43 H18         -4.5740    -2.7640    85.0630 h1         1 O7C       0.074200
     44 H19         -3.3140    -4.2290    87.6140 ha         1 O7C       0.115500
     45 H20         -4.3750    -8.3420    86.8890 ha         1 O7C       0.113000
     46 H21         -4.3980    -5.5240    83.6240 ha         1 O7C       0.115500
     47 H22          3.7410    -3.2170    82.6310 ho         1 O7C       0.545000
     48 C17         -0.8450    -4.2380    83.6770 c3         1 O7C      -0.049800
     49 C22         -1.6740    -0.4180    88.5530 c3         1 O7C       0.106300
     50 C23         -3.6140    -3.2930    85.0040 c3         1 O7C       0.166300
     51 O8           2.3600    -5.3970    86.5000 o          1 O7C      -0.535100
@<TRIPOS>BOND
     1     1    13 1   
     2     1    14 ar  
     3     1    16 ar  
     4     2    14 ar  
     5     2    15 ar  
     6     2    26 1   
     7     3    15 ar  
     8     3    16 ar  
     9     3    22 1   
    10     4    18 ar  
    11     4    20 ar  
    12     4    50 1   
    13     5    18 ar  
    14     5    19 ar  
    15     5    33 1   
    16     6    19 ar  
    17     6    20 ar  
    18     6    34 1   
    19     7     8 1   
    20     7    12 1   
    21     7    35 1   
    22     7    36 1   
    23     8     9 1   
    24     8    37 1   
    25     8    38 1   
    26     9    10 1   
    27     9    39 1   
    28     9    40 1   
    29    10    11 1   
    30    10    51 2   
    31    11    12 2   
    32    11    13 1   
    33    12    23 1   
    34    13    24 2   
    35    14    41 1   
    36    15    21 1   
    37    16    48 1   
    38    17    21 1   
    39    17    22 1   
    40    17    25 2   
    41    18    44 1   
    42    19    45 1   
    43    20    46 1   
    44    21    49 1   
    45    22    50 1   
    46    23    47 1   
    47    27    48 1   
    48    28    48 1   
    49    29    48 1   
    50    30    49 1   
    51    31    49 1   
    52    32    49 1   
    53    42    50 1   
    54    43    50 1   
@<TRIPOS>SUBSTRUCTURE
     1 O7C         1 TEMP              0 ****  ****    0 ROOT
