@<TRIPOS>MOLECULE
O7C
   51    54     1     0     0
SMALL
abcg2


@<TRIPOS>ATOM
      1 C10          1.1070    -3.0190    85.1710 ca         1 O7C      -0.139600
      2 C13          0.6390    -1.5080    87.0170 ca         1 O7C      -0.125000
      3 C15         -1.1520    -2.5980    85.7600 ca         1 O7C      -0.000400
      4 C24         -3.6910    -4.7670    85.4710 ca         1 O7C      -0.110300
      5 C26         -3.3790    -6.5840    87.0330 ca         1 O7C      -0.107000
      6 C28         -4.5900    -6.9610    84.9900 ca         1 O7C      -0.107000
      7 C1           5.7770    -4.8350    84.4530 c6         1 O7C      -0.072200
      8 C2           5.8970    -4.7440    85.9690 c6         1 O7C      -0.063400
      9 C3           4.6890    -5.4040    86.6170 c6         1 O7C      -0.182400
     10 C4           3.3570    -4.8900    86.1020 c          1 O7C       0.602300
     11 C5           3.3410    -4.2180    84.7960 ce         1 O7C      -0.480400
     12 C6           4.4640    -4.3130    83.9800 c2         1 O7C       0.272900
     13 C9           2.1570    -3.5500    84.2660 c          1 O7C       0.639900
     14 C12          1.5400    -2.1770    86.2010 ca         1 O7C      -0.061000
     15 C14         -0.7060    -1.7350    86.7800 ca         1 O7C       0.028600
     16 C16         -0.2600    -3.2610    84.9200 ca         1 O7C      -0.000300
     17 C19         -2.9650    -1.7480    86.8580 c          1 O7C       0.588000
     18 C25         -3.1860    -5.2530    86.6730 ca         1 O7C      -0.099000
     19 C27         -4.0820    -7.4420    86.1950 ca         1 O7C      -0.109000
     20 C29         -4.3930    -5.6330    84.6310 ca         1 O7C      -0.099000
     21 N18         -1.8170    -1.2330    87.4270 n          1 O7C      -0.296000
     22 N20         -2.5510    -2.5810    85.8290 n          1 O7C      -0.298000
     23 O7           4.4410    -3.9370    82.7250 oh         1 O7C      -0.543100
     24 O11          2.0570    -3.3250    83.0400 o          1 O7C      -0.603100
     25 O21         -4.1220    -1.5170    87.1900 o          1 O7C      -0.565000
     26 H1           0.9720    -0.8440    87.8020 ha         1 O7C       0.125000
     27 H2          -1.4860    -4.8850    84.2190 hc         1 O7C       0.052700
     28 H3          -1.1230    -3.6810    82.9860 hc         1 O7C       0.052700
     29 H4           0.1100    -4.8250    83.4890 hc         1 O7C       0.052700
     30 H5          -2.8320    -0.0910    88.8130 h1         1 O7C       0.052367
     31 H6          -1.2810    -0.7390    89.3900 h1         1 O7C       0.052367
     32 H7          -1.3060     0.6240    88.2480 h1         1 O7C       0.052367
     33 H8          -2.9770    -6.9490    87.9700 ha         1 O7C       0.113500
     34 H9          -5.1340    -7.6220    84.3270 ha         1 O7C       0.113500
     35 H10          5.8560    -5.8780    84.1240 hc         1 O7C       0.080200
     36 H11          6.5640    -4.2830    83.9370 hc         1 O7C       0.080200
     37 H12          6.8180    -5.2250    86.3000 hc         1 O7C       0.055700
     38 H13          5.9520    -3.6930    86.2650 hc         1 O7C       0.055700
     39 H14          4.7010    -6.4820    86.4190 hc         1 O7C       0.073200
     40 H15          4.6850    -5.2840    87.7010 hc         1 O7C       0.073200
     41 H16          2.6010    -2.0320    86.3520 ha         1 O7C       0.118000
     42 H17         -3.2410    -3.2730    83.9930 h1         1 O7C       0.074200
     43 H18         -4.4640    -2.7970    85.1530 h1         1 O7C       0.074200
     44 H19         -2.6300    -4.5980    87.3320 ha         1 O7C       0.115500
     45 H20         -4.2310    -8.4770    86.4730 ha         1 O7C       0.113000
     46 H21         -4.7810    -5.2650    83.6880 ha         1 O7C       0.115500
     47 H22          3.4840    -3.6540    82.5340 ho         1 O7C       0.545000
     48 C17         -0.7140    -4.2140    83.8460 c3         1 O7C      -0.049800
     49 C22         -1.8030    -0.3030    88.5370 c3         1 O7C       0.106300
     50 C23         -3.5160    -3.3250    85.0440 c3         1 O7C       0.166300
     51 O8           2.3380    -5.1090    86.7470 o          1 O7C      -0.535100
@<TRIPOS>BOND
     1     1    13 1   
     2     1    14 ar  
     3     1    16 ar  
     4     2    14 ar  
     5     2    15 ar  
     6     2    26 1   
     7     3    15 ar  
     8     3    16 ar  
     9     3    22 1   
    10     4    18 ar  
    11     4    20 ar  
    12     4    50 1   
    13     5    18 ar  
    14     5    19 ar  
    15     5    33 1   
    16     6    19 ar  
    17     6    20 ar  
    18     6    34 1   
    19     7     8 1   
    20     7    12 1   
    21     7    35 1   
    22     7    36 1   
    23     8     9 1   
    24     8    37 1   
    25     8    38 1   
    26     9    10 1   
    27     9    39 1   
    28     9    40 1   
    29    10    11 1   
    30    10    51 2   
    31    11    12 2   
    32    11    13 1   
    33    12    23 1   
    34    13    24 2   
    35    14    41 1   
    36    15    21 1   
    37    16    48 1   
    38    17    21 1   
    39    17    22 1   
    40    17    25 2   
    41    18    44 1   
    42    19    45 1   
    43    20    46 1   
    44    21    49 1   
    45    22    50 1   
    46    23    47 1   
    47    27    48 1   
    48    28    48 1   
    49    29    48 1   
    50    30    49 1   
    51    31    49 1   
    52    32    49 1   
    53    42    50 1   
    54    43    50 1   
@<TRIPOS>SUBSTRUCTURE
     1 O7C         1 TEMP              0 ****  ****    0 ROOT
