@<TRIPOS>MOLECULE
O7D
   33    34     1     0     0
SMALL
No Charge or Current Charge


@<TRIPOS>ATOM
      1 CCT         54.0470   -22.1930   -19.4420 c3         1 O7D       0.162100
      2 CCV         52.0060   -21.2710   -20.5970 c3         1 O7D       0.035500
      3 CCW         51.4150   -21.0840   -22.0210 c3         1 O7D      -0.005200
      4 CCX         52.3320   -20.3410   -22.9650 cc         1 O7D      -0.069400
      5 CCY         53.1020   -20.9030   -23.9790 cd         1 O7D      -0.211100
      6 CDA         53.5190   -18.7110   -23.9980 ca         1 O7D      -0.027200
      7 CDB         52.6100   -18.9230   -22.9970 ca         1 O7D      -0.128800
      8 CDC         52.1090   -17.8590   -22.2210 ca         1 O7D       0.212100
      9 CDD         52.5880   -16.5540   -22.5030 ca         1 O7D      -0.270000
     10 CDE         53.5320   -16.3450   -23.5340 ca         1 O7D      -0.058000
     11 CDF         54.0040   -17.4320   -24.2940 ca         1 O7D      -0.188000
     12 CDH         50.6480   -17.0640   -20.4000 c3         1 O7D       0.148900
     13 CDI         50.9060   -21.7970   -19.5840 c          1 O7D       0.721000
     14 NCU         53.2550   -22.1080   -20.6820 n7         1 O7D      -0.831400
     15 NCZ         53.8510   -19.8940   -24.6280 na         1 O7D      -0.230700
     16 ODG         51.1770   -18.1070   -21.2330 os         1 O7D      -0.296100
     17 ODJ         50.8380   -21.2710   -18.4790 o          1 O7D      -0.727500
     18 HCT2        54.9460   -22.8020   -19.6040 h1         1 O7D       0.012033
     19 HCT3        54.3640   -21.1940   -19.1140 h1         1 O7D       0.012033
     20 HCT1        53.4630   -22.6550   -18.6350 h1         1 O7D       0.012033
     21 HCV1        52.2900   -20.2710   -20.2420 h1         1 O7D       0.015700
     22 HCW1        51.1700   -22.0660   -22.4420 hc         1 O7D       0.060200
     23 HCW2        50.4630   -20.5460   -21.9450 hc         1 O7D       0.060200
     24 HCY1        53.1760   -21.9470   -24.2740 h4         1 O7D       0.212000
     25 HDD1        52.2400   -15.6940   -21.9390 ha         1 O7D       0.105000
     26 HDE1        53.8930   -15.3400   -23.7440 ha         1 O7D       0.091000
     27 HDF1        54.7270   -17.2780   -25.0920 ha         1 O7D       0.099000
     28 HDH2        49.9310   -17.4800   -19.6810 h1         1 O7D       0.036700
     29 HDH3        51.4500   -16.5710   -19.8350 h1         1 O7D       0.036700
     30 HDH1        50.1260   -16.3100   -21.0030 h1         1 O7D       0.036700
     31 H2          54.5000   -20.0110   -25.4010 hn         1 O7D       0.335000
     32 H1          53.8520   -21.6920   -21.4070 hn         1 O7D       0.365000
     33 OXT         50.1440   -22.6900   -19.9390 o          1 O7D      -0.727500
@<TRIPOS>BOND
     1     1    14 1   
     2     1    18 1   
     3     1    19 1   
     4     1    20 1   
     5     2     3 1   
     6     2    13 1   
     7     2    14 1   
     8     2    21 1   
     9     3     4 1   
    10     3    22 1   
    11     3    23 1   
    12     4     5 2   
    13     4     7 1   
    14     5    15 1   
    15     5    24 1   
    16     6     7 ar  
    17     6    11 ar  
    18     6    15 1   
    19     7     8 ar  
    20     8     9 ar  
    21     8    16 1   
    22     9    10 ar  
    23     9    25 1   
    24    10    11 ar  
    25    10    26 1   
    26    11    27 1   
    27    12    16 1   
    28    12    28 1   
    29    12    29 1   
    30    12    30 1   
    31    13    17 1   
    32    13    33 1   
    33    14    32 1   
    34    15    31 1   
@<TRIPOS>SUBSTRUCTURE
     1 O7D         1 TEMP              0 ****  ****    0 ROOT
