@<TRIPOS>MOLECULE
O7D
   33    34     1     0     0
SMALL
bcc


@<TRIPOS>ATOM
      1 CCT         53.9910   -22.2040   -19.4820 c3         1 O7D       0.162100
      2 CCV         52.0290   -21.3060   -20.5750 c3         1 O7D       0.035500
      3 CCW         51.4210   -21.0740   -21.9690 c3         1 O7D      -0.005200
      4 CCX         52.3080   -20.3140   -22.9030 cc         1 O7D      -0.069400
      5 CCY         53.0560   -20.8570   -23.9120 cd         1 O7D      -0.161100
      6 CDA         53.4990   -18.6760   -23.9840 ca         1 O7D      -0.027200
      7 CDB         52.5850   -18.9030   -22.9350 ca         1 O7D      -0.128800
      8 CDC         52.1310   -17.7970   -22.1890 ca         1 O7D       0.212100
      9 CDD         52.6060   -16.5340   -22.5020 ca         1 O7D      -0.288000
     10 CDE         53.5230   -16.3530   -23.5540 ca         1 O7D      -0.076000
     11 CDF         53.9830   -17.4050   -24.3110 ca         1 O7D      -0.206000
     12 CDH         50.7720   -16.9940   -20.4160 c3         1 O7D       0.125700
     13 CDI         50.9260   -21.9190   -19.6720 c          1 O7D       0.931600
     14 NCU         53.2110   -22.1340   -20.6990 n7         1 O7D      -0.776200
     15 NCZ         53.7660   -19.8820   -24.5550 na         1 O7D      -0.180400
     16 ODG         51.2460   -18.0590   -21.2100 os         1 O7D      -0.272900
     17 ODJ         50.1070   -21.0940   -19.2150 o          1 O7D      -0.832800
     18 HCT2        54.9250   -22.7350   -19.6710 h1         1 O7D       0.012033
     19 HCT3        54.2470   -21.2220   -19.0560 h1         1 O7D       0.012033
     20 HCT1        53.4490   -22.7600   -18.7160 h1         1 O7D       0.012033
     21 HCV1        52.2740   -20.3180   -20.1510 h1         1 O7D       0.015700
     22 HCW1        51.1960   -22.0500   -22.4100 hc         1 O7D       0.060200
     23 HCW2        50.4700   -20.5560   -21.8510 hc         1 O7D       0.060200
     24 HCY1        53.1270   -21.8870   -24.2250 h4         1 O7D       0.162000
     25 HDD1        52.2800   -15.6640   -21.9490 ha         1 O7D       0.123000
     26 HDE1        53.8690   -15.3500   -23.7680 ha         1 O7D       0.109000
     27 HDF1        54.6850   -17.2580   -25.1230 ha         1 O7D       0.117000
     28 HDH2        50.0920   -17.4310   -19.6890 h1         1 O7D       0.036700
     29 HDH3        51.5820   -16.4890   -19.8810 h1         1 O7D       0.036700
     30 HDH1        50.2280   -16.2520   -21.0080 h1         1 O7D       0.036700
     31 H2          54.3810   -20.0330   -25.3370 hn         1 O7D       0.284700
     32 H1          53.7950   -21.7410   -21.4270 hn         1 O7D       0.309800
     33 OXT         50.9110   -23.1530   -19.5120 o          1 O7D      -0.832800
@<TRIPOS>BOND
     1     1    14 1   
     2     1    18 1   
     3     1    19 1   
     4     1    20 1   
     5     2     3 1   
     6     2    13 1   
     7     2    14 1   
     8     2    21 1   
     9     3     4 1   
    10     3    22 1   
    11     3    23 1   
    12     4     5 2   
    13     4     7 1   
    14     5    15 1   
    15     5    24 1   
    16     6     7 ar  
    17     6    11 ar  
    18     6    15 1   
    19     7     8 ar  
    20     8     9 ar  
    21     8    16 1   
    22     9    10 ar  
    23     9    25 1   
    24    10    11 ar  
    25    10    26 1   
    26    11    27 1   
    27    12    16 1   
    28    12    28 1   
    29    12    29 1   
    30    12    30 1   
    31    13    17 1   
    32    13    33 1   
    33    14    32 1   
    34    15    31 1   
@<TRIPOS>SUBSTRUCTURE
     1 O7D         1 TEMP              0 ****  ****    0 ROOT
