@<TRIPOS>MOLECULE
O7F
   46    48     1     0     0
SMALL
No Charge or Current Charge


@<TRIPOS>ATOM
      1 C8          17.8950   -43.0550    29.5260 c6         1 O7F       0.195300
      2 C7          21.1000   -44.2170    30.1680 ca         1 O7F      -0.066000
      3 C6          22.1180   -43.9280    31.0920 ca         1 O7F      -0.086000
      4 C5          23.0900   -42.9570    30.7920 ca         1 O7F      -0.126000
      5 C4          23.0510   -42.2720    29.5660 ca         1 O7F       0.281000
      6 C3          22.0320   -42.5600    28.6410 ca         1 O7F      -0.094000
      7 C2          21.0460   -43.5310    28.9350 ca         1 O7F      -0.270500
      8 C1          18.8460   -41.3680    28.0370 c6         1 O7F       0.195300
      9 O5          16.3270   -38.2530    29.8570 o          1 O7F      -0.540500
     10 S           15.7900   -39.5970    30.0970 sy         1 O7F       1.192600
     11 O           15.3580   -40.0030    31.4390 o          1 O7F      -0.540500
     12 C10         14.4860   -39.9530    28.9020 ca         1 O7F      -0.318500
     13 C15         13.5010   -40.9210    29.1930 ca         1 O7F      -0.009000
     14 C14         12.4860   -41.1970    28.2600 ca         1 O7F      -0.180000
     15 C13         12.4460   -40.5080    27.0370 ca         1 O7F       0.100100
     16 O4          11.4570   -40.7770    26.1280 oh         1 O7F      -0.553100
     17 C12         13.4250   -39.5340    26.7450 ca         1 O7F       0.101100
     18 O3          13.3770   -38.8660    25.5530 oh         1 O7F      -0.530100
     19 C11         14.4400   -39.2550    27.6740 ca         1 O7F      -0.028000
     20 N           17.0250   -40.6830    29.6540 n3         1 O7F      -0.734500
     21 C9          16.6750   -42.1260    29.7990 c6         1 O7F       0.196800
     22 N1          18.4960   -42.8120    28.1810 n3         1 O7F      -0.732500
     23 C           17.6260   -40.4400    28.3100 c6         1 O7F       0.196800
     24 S1          19.7350   -43.8960    27.7420 sy         1 O7F       1.183600
     25 O1          19.2000   -45.2400    27.9880 o          1 O7F      -0.542500
     26 O2          20.1600   -43.4960    26.3950 o          1 O7F      -0.542500
     27 H10         17.5560   -44.0960    29.6210 h1         1 O7F       0.068450
     28 H11         18.6390   -42.8840    30.3180 h1         1 O7F       0.068450
     29 H9          20.3560   -44.9740    30.4140 ha         1 O7F       0.136000
     30 H8          22.1550   -44.4570    32.0420 ha         1 O7F       0.118000
     31 H7          23.8730   -42.7400    31.5130 ha         1 O7F       0.117000
     32 H4          22.0070   -42.0260    27.6940 ha         1 O7F       0.131000
     33 H2          19.2150   -41.1550    27.0240 h1         1 O7F       0.068450
     34 H3          19.6470   -41.0930    28.7380 h1         1 O7F       0.068450
     35 H18         13.5180   -41.4620    30.1390 ha         1 O7F       0.141000
     36 H17         11.7350   -41.9470    28.4960 ha         1 O7F       0.122000
     37 H16         10.8710   -41.4730    26.4980 ho         1 O7F       0.483000
     38 H15         12.5940   -39.2190    25.0720 ho         1 O7F       0.484000
     39 H14         15.1860   -38.5000    27.4350 ha         1 O7F       0.149000
     40 H12         15.8740   -42.4010    29.0980 h1         1 O7F       0.066950
     41 H13         16.3060   -42.3400    30.8120 h1         1 O7F       0.066950
     42 H           16.8820   -40.6110    27.5180 h1         1 O7F       0.066950
     43 H1          17.9650   -39.3980    28.2140 h1         1 O7F       0.066950
     44 H5          24.8150   -41.2210    29.8860 hn         1 O7F       0.457000
     45 H6          24.0670   -40.9330    28.3400 hn         1 O7F       0.457000
     46 N2          24.0050   -41.3280    29.2770 nv         1 O7F      -1.082000
@<TRIPOS>BOND
     1     1    21 1   
     2     1    22 1   
     3     1    27 1   
     4     1    28 1   
     5     2     3 ar  
     6     2     7 ar  
     7     2    29 1   
     8     3     4 ar  
     9     3    30 1   
    10     4     5 ar  
    11     4    31 1   
    12     5     6 ar  
    13     5    46 1   
    14     6     7 ar  
    15     6    32 1   
    16     7    24 1   
    17     8    22 1   
    18     8    23 1   
    19     8    33 1   
    20     8    34 1   
    21     9    10 2   
    22    10    11 2   
    23    10    12 1   
    24    10    20 1   
    25    12    13 ar  
    26    12    19 ar  
    27    13    14 ar  
    28    13    35 1   
    29    14    15 ar  
    30    14    36 1   
    31    15    16 1   
    32    15    17 ar  
    33    16    37 1   
    34    17    18 1   
    35    17    19 ar  
    36    18    38 1   
    37    19    39 1   
    38    20    21 1   
    39    20    23 1   
    40    21    40 1   
    41    21    41 1   
    42    22    24 1   
    43    23    42 1   
    44    23    43 1   
    45    24    25 2   
    46    24    26 2   
    47    44    46 1   
    48    45    46 1   
@<TRIPOS>SUBSTRUCTURE
     1 O7F         1 TEMP              0 ****  ****    0 ROOT
