@<TRIPOS>MOLECULE
O7F
   46    48     1     0     0
SMALL
abcg2


@<TRIPOS>ATOM
      1 C8          18.0040   -42.9210    29.4860 c6         1 O7F       0.195300
      2 C7          21.1660   -44.3530    30.1020 ca         1 O7F      -0.066000
      3 C6          22.1530   -44.1470    31.0620 ca         1 O7F      -0.086000
      4 C5          23.1100   -43.1570    30.9020 ca         1 O7F      -0.126000
      5 C4          23.1150   -42.3370    29.7620 ca         1 O7F       0.281000
      6 C3          22.1300   -42.5440    28.7880 ca         1 O7F      -0.094000
      7 C2          21.1800   -43.5410    28.9720 ca         1 O7F      -0.270500
      8 C1          18.9810   -41.2100    28.0330 c6         1 O7F       0.195300
      9 O5          16.3300   -38.3300    29.5300 o          1 O7F      -0.540500
     10 S           15.8270   -39.6510    29.8230 sy         1 O7F       1.192600
     11 O           15.5140   -40.0020    31.1880 o          1 O7F      -0.540500
     12 C10         14.3910   -39.9470    28.8430 ca         1 O7F      -0.318500
     13 C15         13.4070   -40.8060    29.3180 ca         1 O7F      -0.009000
     14 C14         12.3050   -41.0820    28.5190 ca         1 O7F      -0.180000
     15 C13         12.1970   -40.5110    27.2580 ca         1 O7F       0.100100
     16 O4          11.1530   -40.7160    26.4140 oh         1 O7F      -0.553100
     17 C12         13.2030   -39.6540    26.7800 ca         1 O7F       0.101100
     18 O3          13.1060   -39.0920    25.5460 oh         1 O7F      -0.530100
     19 C11         14.3000   -39.3720    27.5740 ca         1 O7F      -0.028000
     20 N           16.9840   -40.7150    29.3230 n3         1 O7F      -0.734500
     21 C9          16.6990   -42.1440    29.5150 c6         1 O7F       0.196800
     22 N1          18.7050   -42.6420    28.2230 n3         1 O7F      -0.732500
     23 C           17.6680   -40.4460    28.0510 c6         1 O7F       0.196800
     24 S1          19.8850   -43.7050    27.7770 sy         1 O7F       1.183600
     25 O1          19.3160   -45.0260    27.8980 o          1 O7F      -0.542500
     26 O2          20.3750   -43.2610    26.4940 o          1 O7F      -0.542500
     27 H10         17.7890   -43.9840    29.5450 h1         1 O7F       0.068450
     28 H11         18.6260   -42.6320    30.3400 h1         1 O7F       0.068450
     29 H9          20.4210   -45.1240    30.2210 ha         1 O7F       0.136000
     30 H8          22.1750   -44.7690    31.9480 ha         1 O7F       0.118000
     31 H7          23.8720   -43.0110    31.6590 ha         1 O7F       0.117000
     32 H4          22.1190   -41.9350    27.8940 ha         1 O7F       0.131000
     33 H2          19.4680   -41.0670    27.0720 h1         1 O7F       0.068450
     34 H3          19.6350   -40.8350    28.8280 h1         1 O7F       0.068450
     35 H18         13.4910   -41.2460    30.3010 ha         1 O7F       0.141000
     36 H17         11.5210   -41.7410    28.8720 ha         1 O7F       0.122000
     37 H16         10.5010   -41.3160    26.8030 ho         1 O7F       0.483000
     38 H15         12.2860   -39.3880    25.1240 ho         1 O7F       0.484000
     39 H14         15.0620   -38.7000    27.2050 ha         1 O7F       0.149000
     40 H12         16.0310   -42.5090    28.7280 h1         1 O7F       0.066950
     41 H13         16.2220   -42.2860    30.4820 h1         1 O7F       0.066950
     42 H           17.0450   -40.7570    27.2040 h1         1 O7F       0.066950
     43 H1          17.8710   -39.3820    27.9740 h1         1 O7F       0.066950
     44 H5          24.8870   -41.4130    30.1590 hn         1 O7F       0.457000
     45 H6          24.1940   -40.9790    28.6900 hn         1 O7F       0.457000
     46 N2          24.0350   -41.3140    29.6280 nv         1 O7F      -1.082000
@<TRIPOS>BOND
     1     1    21 1   
     2     1    22 1   
     3     1    27 1   
     4     1    28 1   
     5     2     3 ar  
     6     2     7 ar  
     7     2    29 1   
     8     3     4 ar  
     9     3    30 1   
    10     4     5 ar  
    11     4    31 1   
    12     5     6 ar  
    13     5    46 1   
    14     6     7 ar  
    15     6    32 1   
    16     7    24 1   
    17     8    22 1   
    18     8    23 1   
    19     8    33 1   
    20     8    34 1   
    21     9    10 2   
    22    10    11 2   
    23    10    12 1   
    24    10    20 1   
    25    12    13 ar  
    26    12    19 ar  
    27    13    14 ar  
    28    13    35 1   
    29    14    15 ar  
    30    14    36 1   
    31    15    16 1   
    32    15    17 ar  
    33    16    37 1   
    34    17    18 1   
    35    17    19 ar  
    36    18    38 1   
    37    19    39 1   
    38    20    21 1   
    39    20    23 1   
    40    21    40 1   
    41    21    41 1   
    42    22    24 1   
    43    23    42 1   
    44    23    43 1   
    45    24    25 2   
    46    24    26 2   
    47    44    46 1   
    48    45    46 1   
@<TRIPOS>SUBSTRUCTURE
     1 O7F         1 TEMP              0 ****  ****    0 ROOT
