@<TRIPOS>MOLECULE
O7G
   24    23     1     0     0
SMALL
abcg2


@<TRIPOS>ATOM
      1 N           39.9490   -27.6940    -8.9350 n3         1 O7G      -0.744600
      2 CA          39.8780   -28.1600    -7.5480 c3         1 O7G       0.062500
      3 C           40.9270   -27.4600    -6.6390 c          1 O7G       0.693000
      4 O           40.5460   -26.4400    -6.0280 o          1 O7G      -0.734000
      5 CB          39.9210   -29.6890    -7.4520 c3         1 O7G      -0.042700
      6 CAA         41.1800   -27.9740    -9.6370 c3         1 O7G       0.181100
      7 CAB         39.5580   -26.3150    -9.1060 c3         1 O7G       0.181100
      8 CAF         39.6270   -30.1290    -6.0190 c3         1 O7G      -0.075100
      9 CAG         38.9320   -30.3460    -8.4090 c3         1 O7G      -0.075100
     10 HA          38.8830   -27.8570    -7.1950 h1         1 O7G       0.035700
     11 HB1         40.9280   -30.0370    -7.7000 hc         1 O7G       0.056700
     12 HAA1        41.4460   -29.0280    -9.5510 h1         1 O7G       0.015033
     13 HAA2        41.0400   -27.7620   -10.7000 h1         1 O7G       0.015033
     14 HAA3        42.0420   -27.3840    -9.2960 h1         1 O7G       0.015033
     15 HAB3        38.6030   -26.1300    -8.6120 h1         1 O7G       0.015033
     16 HAB1        40.2810   -25.5840    -8.7150 h1         1 O7G       0.015033
     17 HAB2        39.4270   -26.1030   -10.1700 h1         1 O7G       0.015033
     18 HAF3        39.6630   -31.2160    -5.9300 hc         1 O7G       0.017867
     19 HAF1        40.3460   -29.7210    -5.3090 hc         1 O7G       0.017867
     20 HAF2        38.6300   -29.8070    -5.7070 hc         1 O7G       0.017867
     21 HAG2        38.9290   -31.4300    -8.2770 hc         1 O7G       0.017867
     22 HAG3        37.9150   -29.9910    -8.2250 hc         1 O7G       0.017867
     23 HAG1        39.1680   -30.1410    -9.4520 hc         1 O7G       0.017867
     24 OXT         42.0800   -27.9420    -6.6220 o          1 O7G      -0.734000
@<TRIPOS>BOND
     1     1     2 1   
     2     1     6 1   
     3     1     7 1   
     4     2     3 1   
     5     2     5 1   
     6     2    10 1   
     7     3     4 1   
     8     3    24 1   
     9     5     8 1   
    10     5     9 1   
    11     5    11 1   
    12     6    12 1   
    13     6    13 1   
    14     6    14 1   
    15     7    15 1   
    16     7    16 1   
    17     7    17 1   
    18     8    18 1   
    19     8    19 1   
    20     8    20 1   
    21     9    21 1   
    22     9    22 1   
    23     9    23 1   
@<TRIPOS>SUBSTRUCTURE
     1 O7G         1 TEMP              0 ****  ****    0 ROOT
