@<TRIPOS>MOLECULE
O7G
   24    23     1     0     0
SMALL
No Charge or Current Charge


@<TRIPOS>ATOM
      1 N           39.9320   -27.6600    -9.0280 n3         1 O7G      -0.744600
      2 CA          39.8710   -28.1380    -7.5900 c3         1 O7G       0.062500
      3 C           40.8720   -27.4410    -6.5740 c          1 O7G       0.693000
      4 O           40.4340   -26.5640    -5.8380 o          1 O7G      -0.734000
      5 CB          39.9010   -29.7010    -7.4390 c3         1 O7G      -0.042700
      6 CAA         41.1980   -27.9840    -9.7280 c3         1 O7G       0.181100
      7 CAB         39.5760   -26.2310    -9.1680 c3         1 O7G       0.181100
      8 CAF         39.6630   -30.1530    -5.9750 c3         1 O7G      -0.075100
      9 CAG         38.8870   -30.4120    -8.3740 c3         1 O7G      -0.075100
     10 HA          38.8760   -27.8530    -7.2200 h1         1 O7G       0.035700
     11 HB1         40.9020   -30.0520    -7.7180 hc         1 O7G       0.056700
     12 HAA1        41.4030   -29.0620    -9.7040 h1         1 O7G       0.015033
     13 HAA2        41.1400   -27.6830   -10.7830 h1         1 O7G       0.015033
     14 HAA3        42.0470   -27.4580    -9.2720 h1         1 O7G       0.015033
     15 HAB3        38.5990   -26.0270    -8.7090 h1         1 O7G       0.015033
     16 HAB1        40.3260   -25.5900    -8.6850 h1         1 O7G       0.015033
     17 HAB2        39.5150   -25.9490   -10.2280 h1         1 O7G       0.015033
     18 HAF3        39.6770   -31.2470    -5.9000 hc         1 O7G       0.017867
     19 HAF1        40.4410   -29.7700    -5.3040 hc         1 O7G       0.017867
     20 HAF2        38.6910   -29.7980    -5.6120 hc         1 O7G       0.017867
     21 HAG2        38.9210   -31.4980    -8.2270 hc         1 O7G       0.017867
     22 HAG3        37.8650   -30.0710    -8.1690 hc         1 O7G       0.017867
     23 HAG1        39.1110   -30.2170    -9.4290 hc         1 O7G       0.017867
     24 OXT         42.0510   -27.7810    -6.5610 o          1 O7G      -0.734000
@<TRIPOS>BOND
     1     1     2 1   
     2     1     6 1   
     3     1     7 1   
     4     2     3 1   
     5     2     5 1   
     6     2    10 1   
     7     3     4 1   
     8     3    24 1   
     9     5     8 1   
    10     5     9 1   
    11     5    11 1   
    12     6    12 1   
    13     6    13 1   
    14     6    14 1   
    15     7    15 1   
    16     7    16 1   
    17     7    17 1   
    18     8    18 1   
    19     8    19 1   
    20     8    20 1   
    21     9    21 1   
    22     9    22 1   
    23     9    23 1   
@<TRIPOS>SUBSTRUCTURE
     1 O7G         1 TEMP              0 ****  ****    0 ROOT
