@<TRIPOS>MOLECULE
O7I
   48    51     1     0     0
SMALL
No Charge or Current Charge


@<TRIPOS>ATOM
      1 C1          14.9300   -24.6800    17.2170 cp         1 O7I       0.250500
      2 C2          16.3190   -24.5430    17.5170 ca         1 O7I      -0.168000
      3 C3          16.7840   -24.0960    18.7730 ca         1 O7I      -0.019000
      4 C4          18.1610   -23.9730    19.0110 ca         1 O7I      -0.159000
      5 C5          19.0880   -24.2980    18.0130 ca         1 O7I       0.166100
      6 C6          21.4600   -24.4620    17.3540 c3         1 O7I       0.162600
      7 N1          16.8290   -25.3570    15.3150 nb         1 O7I      -0.210000
      8 N2          14.5400   -25.1730    16.0250 nb         1 O7I      -0.202000
      9 O1          20.4290   -24.1550    18.3070 os         1 O7I      -0.357100
     10 C7          22.8130   -24.1810    18.0270 c3         1 O7I      -0.094100
     11 C8          18.6290   -24.7630    16.7640 ca         1 O7I      -0.216000
     12 C9          17.2520   -24.8940    16.5090 ca         1 O7I       0.063000
     13 C10         15.5000   -25.4790    15.1340 ca         1 O7I       0.130900
     14 C11         13.8250   -24.2890    18.1490 cp         1 O7I      -0.224500
     15 C12         13.7780   -22.9970    18.7260 ca         1 O7I      -0.096000
     16 C13         12.7420   -22.5970    19.6030 ca         1 O7I      -0.070300
     17 C14         12.7560   -21.1880    20.2390 c5         1 O7I      -0.017400
     18 C15         14.0260   -21.0740    21.1430 c5         1 O7I      -0.073900
     19 O2          10.5200   -23.7430    21.9090 o          1 O7I      -0.711500
     20 C16         14.3840   -19.5770    20.9900 c5         1 O7I      -0.081400
     21 C17         14.3240   -19.4440    19.4500 c5         1 O7I      -0.081400
     22 C18         12.9520   -20.1000    19.1220 c5         1 O7I      -0.073900
     23 C19         11.7090   -23.5290    19.8950 ca         1 O7I      -0.065600
     24 C20         10.5610   -23.1930    20.8170 c          1 O7I       0.701600
     25 O3           9.6890   -22.4380    20.4070 o          1 O7I      -0.711500
     26 C21         11.7410   -24.8140    19.3140 ca         1 O7I      -0.113000
     27 C22         12.7780   -25.1880    18.4490 ca         1 O7I      -0.076000
     28 H1          16.0920   -23.8560    19.5760 ha         1 O7I       0.144000
     29 H2          18.5130   -23.6260    19.9790 ha         1 O7I       0.127000
     30 H3          21.3610   -23.8370    16.4570 h1         1 O7I       0.038700
     31 H4          21.4130   -25.5180    17.0560 h1         1 O7I       0.038700
     32 H5          23.6340   -24.4020    17.3340 hc         1 O7I       0.045033
     33 H6          22.8860   -23.1270    18.3220 hc         1 O7I       0.045033
     34 H7          22.9380   -24.8050    18.9190 hc         1 O7I       0.045033
     35 H8          19.3290   -25.0310    15.9780 ha         1 O7I       0.128000
     36 H9          15.1700   -25.8640    14.1710 h5         1 O7I       0.036100
     37 H10         14.5690   -22.2940    18.4800 ha         1 O7I       0.095000
     38 H11         11.8580   -20.9570    20.8220 hc         1 O7I       0.093700
     39 H12         13.8170   -21.3480    22.1830 hc         1 O7I       0.041700
     40 H13         14.8570   -21.7070    20.8090 hc         1 O7I       0.041700
     41 H15         15.3750   -19.3400    21.3930 hc         1 O7I       0.030450
     42 H16         13.6550   -18.9260    21.4890 hc         1 O7I       0.030450
     43 H17         15.1530   -19.9770    18.9690 hc         1 O7I       0.030450
     44 H18         14.3750   -18.4000    19.1180 hc         1 O7I       0.030450
     45 H19         12.1500   -19.3550    19.1810 hc         1 O7I       0.041700
     46 H20         12.9190   -20.4990    18.1010 hc         1 O7I       0.041700
     47 H21         10.9480   -25.5240    19.5370 ha         1 O7I       0.118000
     48 H22         12.7770   -26.1860    18.0160 ha         1 O7I       0.103000
@<TRIPOS>BOND
     1     1     2 ar  
     2     1     8 ar  
     3     1    14 1   
     4     2     3 ar  
     5     2    12 ar  
     6     3     4 ar  
     7     3    28 1   
     8     4     5 ar  
     9     4    29 1   
    10     5     9 1   
    11     5    11 ar  
    12     6     9 1   
    13     6    10 1   
    14     6    30 1   
    15     6    31 1   
    16     7    12 ar  
    17     7    13 ar  
    18     8    13 ar  
    19    10    32 1   
    20    10    33 1   
    21    10    34 1   
    22    11    12 ar  
    23    11    35 1   
    24    13    36 1   
    25    14    15 ar  
    26    14    27 ar  
    27    15    16 ar  
    28    15    37 1   
    29    16    17 1   
    30    16    23 ar  
    31    17    18 1   
    32    17    22 1   
    33    17    38 1   
    34    18    20 1   
    35    18    39 1   
    36    18    40 1   
    37    19    24 1   
    38    20    21 1   
    39    20    41 1   
    40    20    42 1   
    41    21    22 1   
    42    21    43 1   
    43    21    44 1   
    44    22    45 1   
    45    22    46 1   
    46    23    24 1   
    47    23    26 ar  
    48    24    25 1   
    49    26    27 ar  
    50    26    47 1   
    51    27    48 1   
@<TRIPOS>SUBSTRUCTURE
     1 O7I         1 TEMP              0 ****  ****    0 ROOT
