@<TRIPOS>MOLECULE
O7I
   48    51     1     0     0
SMALL
abcg2


@<TRIPOS>ATOM
      1 C1          14.9620   -24.7600    17.1920 cp         1 O7I       0.250500
      2 C2          16.3370   -24.6240    17.5260 ca         1 O7I      -0.168000
      3 C3          16.8290   -24.1770    18.7800 ca         1 O7I      -0.019000
      4 C4          18.1700   -24.0710    19.0050 ca         1 O7I      -0.159000
      5 C5          19.1040   -24.4050    17.9880 ca         1 O7I       0.166100
      6 C6          21.4150   -24.5530    17.3590 c3         1 O7I       0.162600
      7 N1          16.8650   -25.5170    15.3350 nb         1 O7I      -0.210000
      8 N2          14.5950   -25.2980    16.0340 nb         1 O7I      -0.202000
      9 O1          20.3970   -24.2430    18.3290 os         1 O7I      -0.357100
     10 C7          22.7560   -24.2660    17.9930 c3         1 O7I      -0.094100
     11 C8          18.6630   -24.8730    16.7680 ca         1 O7I      -0.216000
     12 C9          17.2800   -25.0040    16.5290 ca         1 O7I       0.063000
     13 C10         15.5700   -25.6550    15.1740 ca         1 O7I       0.130900
     14 C11         13.8790   -24.3230    18.0990 cp         1 O7I      -0.224500
     15 C12         13.8990   -23.0610    18.6920 ca         1 O7I      -0.096000
     16 C13         12.8800   -22.6250    19.5390 ca         1 O7I      -0.070300
     17 C14         12.9500   -21.2470    20.1480 c5         1 O7I      -0.017400
     18 C15         14.1900   -20.9860    21.0230 c5         1 O7I      -0.073900
     19 O2          10.8500   -23.4020    21.9630 o          1 O7I      -0.711500
     20 C16         14.2010   -19.4630    21.1610 c5         1 O7I      -0.081400
     21 C17         13.8450   -18.9660    19.7470 c5         1 O7I      -0.081400
     22 C18         12.9670   -20.0810    19.1210 c5         1 O7I      -0.073900
     23 C19         11.8160   -23.4950    19.8090 ca         1 O7I      -0.065600
     24 C20         10.6940   -23.0970    20.7550 c          1 O7I       0.701600
     25 O3           9.7100   -22.5050    20.2470 o          1 O7I      -0.711500
     26 C21         11.7860   -24.7570    19.2090 ca         1 O7I      -0.113000
     27 C22         12.7940   -25.1680    18.3530 ca         1 O7I      -0.076000
     28 H1          16.1350   -23.9320    19.5700 ha         1 O7I       0.144000
     29 H2          18.5510   -23.7360    19.9610 ha         1 O7I       0.127000
     30 H3          21.2550   -23.9390    16.4690 h1         1 O7I       0.038700
     31 H4          21.3270   -25.6050    17.0750 h1         1 O7I       0.038700
     32 H5          23.5500   -24.4900    17.2790 hc         1 O7I       0.045033
     33 H6          22.8340   -23.2150    18.2770 hc         1 O7I       0.045033
     34 H7          22.9060   -24.8820    18.8810 hc         1 O7I       0.045033
     35 H8          19.3430   -25.1630    15.9810 ha         1 O7I       0.128000
     36 H9          15.2350   -26.0910    14.2380 h5         1 O7I       0.036100
     37 H10         14.7190   -22.3900    18.4710 ha         1 O7I       0.095000
     38 H11         12.0770   -21.1110    20.7870 hc         1 O7I       0.093700
     39 H12         14.1370   -21.5120    21.9780 hc         1 O7I       0.041700
     40 H13         15.0930   -21.3220    20.5060 hc         1 O7I       0.041700
     41 H15         15.1540   -19.0700    21.5180 hc         1 O7I       0.030450
     42 H16         13.4300   -19.1570    21.8740 hc         1 O7I       0.030450
     43 H17         14.7580   -18.8410    19.1610 hc         1 O7I       0.030450
     44 H18         13.3410   -17.9990    19.7670 hc         1 O7I       0.030450
     45 H19         11.9510   -19.7440    18.9140 hc         1 O7I       0.041700
     46 H20         13.3910   -20.4140    18.1730 hc         1 O7I       0.041700
     47 H21         10.9580   -25.4250    19.4180 ha         1 O7I       0.118000
     48 H22         12.7590   -26.1460    17.8920 ha         1 O7I       0.103000
@<TRIPOS>BOND
     1     1     2 ar  
     2     1     8 ar  
     3     1    14 1   
     4     2     3 ar  
     5     2    12 ar  
     6     3     4 ar  
     7     3    28 1   
     8     4     5 ar  
     9     4    29 1   
    10     5     9 1   
    11     5    11 ar  
    12     6     9 1   
    13     6    10 1   
    14     6    30 1   
    15     6    31 1   
    16     7    12 ar  
    17     7    13 ar  
    18     8    13 ar  
    19    10    32 1   
    20    10    33 1   
    21    10    34 1   
    22    11    12 ar  
    23    11    35 1   
    24    13    36 1   
    25    14    15 ar  
    26    14    27 ar  
    27    15    16 ar  
    28    15    37 1   
    29    16    17 1   
    30    16    23 ar  
    31    17    18 1   
    32    17    22 1   
    33    17    38 1   
    34    18    20 1   
    35    18    39 1   
    36    18    40 1   
    37    19    24 1   
    38    20    21 1   
    39    20    41 1   
    40    20    42 1   
    41    21    22 1   
    42    21    43 1   
    43    21    44 1   
    44    22    45 1   
    45    22    46 1   
    46    23    24 1   
    47    23    26 ar  
    48    24    25 1   
    49    26    27 ar  
    50    26    47 1   
    51    27    48 1   
@<TRIPOS>SUBSTRUCTURE
     1 O7I         1 TEMP              0 ****  ****    0 ROOT
