@<TRIPOS>MOLECULE
O7J
   45    45     1     0     0
SMALL
No Charge or Current Charge


@<TRIPOS>ATOM
      1 O10          2.0380     3.0600     2.6200 o          1 O7J      -0.777000
      2 C13          3.0480     1.1450    -0.6170 c3         1 O7J       0.045500
      3 C14          3.8550     0.0000    -1.2930 c3         1 O7J      -0.041400
      4 C16          5.3490    -2.0360    -1.0630 c          1 O7J       0.708000
      5 C02         -4.0420     1.4710    -1.1320 c          1 O7J       0.703000
      6 C04         -3.5970     0.1210    -0.4370 c3         1 O7J       0.044500
      7 C07         -0.2650     0.8960     1.3920 c3         1 O7J      -0.037400
      8 C08          1.1160     1.4980     1.0170 c3         1 O7J       0.044500
      9 C09          1.9120     1.8760     2.3320 c          1 O7J       0.691000
     10 C15          4.4680    -1.0280    -0.3030 c3         1 O7J      -0.196400
     11 C19          2.7340     2.3110    -1.6520 c          1 O7J       0.719000
     12 C22         -4.8400    -0.6210     0.1200 c3         1 O7J      -0.005100
     13 C23         -4.5680    -2.0390     0.5590 cc         1 O7J      -0.099300
     14 C24         -4.4590    -2.5610     1.8240 cd         1 O7J       0.169900
     15 C26         -4.1930    -4.2320     0.4840 cc         1 O7J       0.346400
     16 N05         -2.5600     0.2800     0.6470 n7         1 O7J      -0.868400
     17 N12          1.8490     0.5680     0.0860 n7         1 O7J      -0.824400
     18 N25         -4.2300    -3.9230     1.7720 nd         1 O7J      -0.715000
     19 N27         -4.4000    -3.1150    -0.2860 na         1 O7J      -0.283500
     20 O11          2.4160     0.9800     2.9990 o          1 O7J      -0.777000
     21 O17          6.5270    -1.7630    -1.2340 o          1 O7J      -0.790500
     22 O18          4.8280    -3.0510    -1.5000 o          1 O7J      -0.790500
     23 H131         3.7130     1.5830     0.1410 h1         1 O7J       0.008700
     24 H141         3.2180    -0.5250    -2.0160 hc         1 O7J       0.030200
     25 H142         4.6720     0.4530    -1.8690 hc         1 O7J       0.030200
     26 H041        -3.1820    -0.5110    -1.2350 h1         1 O7J       0.045700
     27 H072        -0.7300     1.5470     2.1440 hc         1 O7J       0.010200
     28 H071        -0.1240    -0.0840     1.8660 hc         1 O7J       0.010200
     29 H081         0.9160     2.4480     0.5020 h1         1 O7J       0.065700
     30 H151         5.0770    -0.4430     0.3980 hc         1 O7J       0.023200
     31 H152         3.6230    -1.5440     0.1700 hc         1 O7J       0.023200
     32 H222        -5.2610    -0.0500     0.9570 hc         1 O7J       0.037200
     33 H221        -5.6150    -0.6350    -0.6560 hc         1 O7J       0.037200
     34 H241        -4.5400    -2.0350     2.7680 h4         1 O7J       0.013100
     35 H261        -4.0310    -5.2150     0.0580 h5         1 O7J       0.027100
     36 H2          -2.9250     0.9580     1.3250 hn         1 O7J       0.389000
     37 H121         2.1800    -0.2190     0.6540 hn         1 O7J       0.390000
     38 H271        -4.4200    -3.1010    -1.2980 hn         1 O7J       0.356000
     39 O20          2.2520     2.0350    -2.7450 o          1 O7J      -0.768000
     40 C06         -1.2320     0.7610     0.1930 c3         1 O7J       0.147800
     41 O01         -3.8830     1.5830    -2.3410 o          1 O7J      -0.749000
     42 H061        -1.3230     1.7410    -0.2970 h1         1 O7J       0.061700
     43 H062        -0.8010     0.0650    -0.5400 h1         1 O7J       0.061700
     44 O21          3.0160     3.4620    -1.3360 o          1 O7J      -0.768000
     45 O03         -4.4770     2.3790    -0.4330 o          1 O7J      -0.749000
@<TRIPOS>BOND
     1     1     9 1   
     2     2     3 1   
     3     2    11 1   
     4     2    17 1   
     5     2    23 1   
     6     3    10 1   
     7     3    24 1   
     8     3    25 1   
     9     4    10 1   
    10     4    21 1   
    11     4    22 1   
    12     5     6 1   
    13     5    41 1   
    14     5    45 1   
    15     6    12 1   
    16     6    16 1   
    17     6    26 1   
    18     7     8 1   
    19     7    27 1   
    20     7    28 1   
    21     7    40 1   
    22     8     9 1   
    23     8    17 1   
    24     8    29 1   
    25     9    20 1   
    26    10    30 1   
    27    10    31 1   
    28    11    39 1   
    29    11    44 1   
    30    12    13 1   
    31    12    32 1   
    32    12    33 1   
    33    13    14 2   
    34    13    19 1   
    35    14    18 1   
    36    14    34 1   
    37    15    18 2   
    38    15    19 1   
    39    15    35 1   
    40    16    36 1   
    41    16    40 1   
    42    17    37 1   
    43    19    38 1   
    44    40    42 1   
    45    40    43 1   
@<TRIPOS>SUBSTRUCTURE
     1 O7J         1 TEMP              0 ****  ****    0 ROOT
