@<TRIPOS>MOLECULE
O7J
   45    45     1     0     0
SMALL
abcg2


@<TRIPOS>ATOM
      1 O10          1.6220     2.6370     3.0910 o          1 O7J      -0.777000
      2 C13          2.8220     1.0530    -0.5350 c3         1 O7J       0.045500
      3 C14          3.5940    -0.0280    -1.3000 c3         1 O7J      -0.041400
      4 C16          5.2030    -2.0530    -1.1580 c          1 O7J       0.708000
      5 C02         -3.9180     1.5520    -1.1690 c          1 O7J       0.703000
      6 C04         -3.4300     0.2190    -0.5450 c3         1 O7J       0.044500
      7 C07         -0.3250     0.9020     1.4640 c3         1 O7J      -0.037400
      8 C08          1.0910     1.3820     1.1340 c3         1 O7J       0.044500
      9 C09          1.8690     1.5890     2.4550 c          1 O7J       0.691000
     10 C15          4.2830    -1.0610    -0.4210 c3         1 O7J      -0.196400
     11 C19          2.3580     2.1160    -1.5570 c          1 O7J       0.719000
     12 C22         -4.6780    -0.5860    -0.1450 c3         1 O7J      -0.005100
     13 C23         -4.3740    -1.9120     0.4530 cc         1 O7J      -0.099300
     14 C24         -4.6550    -2.4480     1.6790 cd         1 O7J       0.169900
     15 C26         -3.5900    -3.9600     0.6290 cc         1 O7J       0.346400
     16 N05         -2.5460     0.3470     0.5910 n7         1 O7J      -0.868400
     17 N12          1.7260     0.4630     0.2070 n7         1 O7J      -0.824400
     18 N25         -4.1630    -3.7230     1.7800 nd         1 O7J      -0.715000
     19 N27         -3.6950    -2.9000    -0.2010 na         1 O7J      -0.283500
     20 O11          2.6480     0.6800     2.8110 o          1 O7J      -0.777000
     21 O17          5.5880    -1.7530    -2.3050 o          1 O7J      -0.790500
     22 O18          5.5120    -3.0870    -0.5260 o          1 O7J      -0.790500
     23 H131         3.5480     1.5520     0.1320 h1         1 O7J       0.008700
     24 H141         2.9050    -0.5270    -1.9920 hc         1 O7J       0.030200
     25 H142         4.3460     0.4670    -1.9170 hc         1 O7J       0.030200
     26 H041        -2.8930    -0.3410    -1.3200 h1         1 O7J       0.045700
     27 H072        -0.7600     1.5660     2.2200 hc         1 O7J       0.010200
     28 H071        -0.2800    -0.0950     1.9170 hc         1 O7J       0.010200
     29 H081         0.9920     2.3550     0.6450 h1         1 O7J       0.065700
     30 H151         4.8900    -0.5430     0.3340 hc         1 O7J       0.023200
     31 H152         3.5550    -1.6430     0.1510 hc         1 O7J       0.023200
     32 H222        -5.2570    -0.0140     0.5850 hc         1 O7J       0.037200
     33 H221        -5.3200    -0.7030    -1.0240 hc         1 O7J       0.037200
     34 H241        -5.1820    -1.9730     2.4930 h4         1 O7J       0.013100
     35 H261        -3.0890    -4.8710     0.3410 h5         1 O7J       0.027100
     36 H2          -2.9790     0.9900     1.2450 hn         1 O7J       0.389000
     37 H121         2.1140    -0.2760     0.7840 hn         1 O7J       0.390000
     38 H271        -3.3310    -2.8520    -1.1400 hn         1 O7J       0.356000
     39 O20          1.2010     2.0430    -2.0110 o          1 O7J      -0.768000
     40 C06         -1.2320     0.8590     0.2460 c3         1 O7J       0.147800
     41 O01         -4.2500     1.5120    -2.3720 o          1 O7J      -0.749000
     42 H061        -1.2630     1.8580    -0.2130 h1         1 O7J       0.061700
     43 H062        -0.7800     0.2030    -0.5010 h1         1 O7J       0.061700
     44 O21          3.2260     2.9580    -1.8830 o          1 O7J      -0.768000
     45 O03         -3.9890     2.5360    -0.4070 o          1 O7J      -0.749000
@<TRIPOS>BOND
     1     1     9 1   
     2     2     3 1   
     3     2    11 1   
     4     2    17 1   
     5     2    23 1   
     6     3    10 1   
     7     3    24 1   
     8     3    25 1   
     9     4    10 1   
    10     4    21 1   
    11     4    22 1   
    12     5     6 1   
    13     5    41 1   
    14     5    45 1   
    15     6    12 1   
    16     6    16 1   
    17     6    26 1   
    18     7     8 1   
    19     7    27 1   
    20     7    28 1   
    21     7    40 1   
    22     8     9 1   
    23     8    17 1   
    24     8    29 1   
    25     9    20 1   
    26    10    30 1   
    27    10    31 1   
    28    11    39 1   
    29    11    44 1   
    30    12    13 1   
    31    12    32 1   
    32    12    33 1   
    33    13    14 2   
    34    13    19 1   
    35    14    18 1   
    36    14    34 1   
    37    15    18 2   
    38    15    19 1   
    39    15    35 1   
    40    16    36 1   
    41    16    40 1   
    42    17    37 1   
    43    19    38 1   
    44    40    42 1   
    45    40    43 1   
@<TRIPOS>SUBSTRUCTURE
     1 O7J         1 TEMP              0 ****  ****    0 ROOT
