@<TRIPOS>MOLECULE
O7K
   58    62     1     0     0
SMALL
No Charge or Current Charge


@<TRIPOS>ATOM
      1 C1          -7.0570    -1.3000     0.6110 c3         1 O7K      -0.156400
      2 C2          -5.8640    -1.8160    -0.2210 c          1 O7K       0.612100
      3 C3          -4.2340    -0.4480     1.1920 c6         1 O7K       0.121000
      4 C7          -0.2530     3.3920    -0.3100 ca         1 O7K       0.335900
      5 C8           1.4150     1.7550    -0.1940 ca         1 O7K       0.208000
      6 C9           0.4400     0.7410    -0.0200 ca         1 O7K      -0.011000
      7 C10         -0.9280     1.1010    -0.0090 ca         1 O7K       0.217000
      8 C11         -2.4020    -0.5500    -1.0720 c6         1 O7K       0.162800
      9 C12         -3.4120    -1.6980    -0.8100 c6         1 O7K       0.104700
     10 C13         -2.7110    -2.8970    -0.1090 c3         1 O7K      -0.104100
     11 C14          0.8390    -0.6030     0.1540 ca         1 O7K      -0.107000
     12 C15          2.1940    -0.9550     0.1370 ca         1 O7K       0.166000
     13 C16          3.1910     0.0290    -0.0480 cp         1 O7K      -0.061000
     14 C19          5.3710    -0.3670    -1.2830 ca         1 O7K       0.194100
     15 C20          6.7330    -0.7110    -1.2930 ca         1 O7K      -0.228000
     16 C21          7.3920    -1.0310    -0.0950 ca         1 O7K      -0.031000
     17 C22          6.6840    -1.0050     1.1160 ca         1 O7K      -0.194000
     18 Cl           2.6170    -2.6560     0.3350 cl         1 O7K      -0.180000
     19 C18          4.6420    -0.3370    -0.0700 cp         1 O7K      -0.128000
     20 C23          5.3240    -0.6610     1.1270 ca         1 O7K       0.237000
     21 F1           4.6680    -0.6340     2.3090 f          1 O7K      -0.167000
     22 C17          2.7830     1.3760    -0.2090 ca         1 O7K       0.244000
     23 F            3.7340     2.3320    -0.3640 f          1 O7K      -0.144000
     24 N2           1.0560     3.0600    -0.3230 nb         1 O7K      -0.616000
     25 C6          -1.2950     2.4480    -0.2220 ca         1 O7K      -0.102000
     26 N1          -2.6840     2.8570    -0.0750 n          1 O7K      -0.214400
     27 C5          -3.6480     2.0110     0.5340 c          1 O7K       0.542000
     28 O1          -4.8000     2.3770     0.7440 o          1 O7K      -0.525000
     29 N3          -1.9550     0.1460     0.1710 nh         1 O7K      -0.740400
     30 C4          -3.1120     0.6260     1.0080 c6         1 O7K       0.091500
     31 N           -4.5940    -1.2180    -0.0380 n          1 O7K      -0.418800
     32 O           -6.0220    -2.6950    -1.0600 o          1 O7K      -0.601100
     33 C           -8.4390    -1.8930     0.2520 c3         1 O7K      -0.075100
     34 H1          -6.8240    -1.4600     1.6690 hc         1 O7K       0.064200
     35 H2          -7.0650    -0.2060     0.5500 hc         1 O7K       0.064200
     36 H3          -3.8830    -1.1720     1.9410 h1         1 O7K       0.064200
     37 H4          -5.1120     0.0370     1.6340 h1         1 O7K       0.064200
     38 H5          -0.4630     4.4580    -0.3790 h4         1 O7K       0.031100
     39 H6          -1.5350    -0.9590    -1.6100 h1         1 O7K       0.056200
     40 H7          -2.8780     0.1780    -1.7460 h1         1 O7K       0.056200
     41 H8          -3.7470    -2.0510    -1.7960 h1         1 O7K       0.093700
     42 H9          -2.3000    -2.6160     0.8680 hc         1 O7K       0.044367
     43 H10         -3.4120    -3.7240     0.0480 hc         1 O7K       0.044367
     44 H11         -1.8830    -3.2780    -0.7190 hc         1 O7K       0.044367
     45 H12          0.1000    -1.3850     0.3030 ha         1 O7K       0.150000
     46 H13          7.2880    -0.7350    -2.2270 ha         1 O7K       0.121000
     47 H14          8.4480    -1.2980    -0.1050 ha         1 O7K       0.119000
     48 H15          7.1870    -1.2490     2.0490 ha         1 O7K       0.138000
     49 H16         -2.5020     4.4460    -1.4770 h1         1 O7K       0.054367
     50 H17         -4.1650     4.1140    -0.9560 h1         1 O7K       0.054367
     51 H18         -3.0350     4.9340     0.1610 h1         1 O7K       0.054367
     52 H19          5.4210    -0.1520    -3.1820 ho         1 O7K       0.470000
     53 H20         -2.7280     0.8410     2.0160 h1         1 O7K       0.092700
     54 H21         -8.4450    -2.9810     0.3920 hc         1 O7K       0.041367
     55 H22         -9.2180    -1.4620     0.8940 hc         1 O7K       0.041367
     56 H23         -8.6970    -1.6750    -0.7910 hc         1 O7K       0.041367
     57 C24         -3.1230     4.1650    -0.6170 c3         1 O7K       0.078300
     58 O2           4.7590    -0.0700    -2.4650 oh         1 O7K      -0.519100
@<TRIPOS>BOND
     1     1     2 1   
     2     1    33 1   
     3     1    34 1   
     4     1    35 1   
     5     2    31 1   
     6     2    32 2   
     7     3    30 1   
     8     3    31 1   
     9     3    36 1   
    10     3    37 1   
    11     4    24 ar  
    12     4    25 ar  
    13     4    38 1   
    14     5     6 ar  
    15     5    22 ar  
    16     5    24 ar  
    17     6     7 ar  
    18     6    11 ar  
    19     7    25 ar  
    20     7    29 1   
    21     8     9 1   
    22     8    29 1   
    23     8    39 1   
    24     8    40 1   
    25     9    10 1   
    26     9    31 1   
    27     9    41 1   
    28    10    42 1   
    29    10    43 1   
    30    10    44 1   
    31    11    12 ar  
    32    11    45 1   
    33    12    13 ar  
    34    12    18 1   
    35    13    19 1   
    36    13    22 ar  
    37    14    15 ar  
    38    14    19 ar  
    39    14    58 1   
    40    15    16 ar  
    41    15    46 1   
    42    16    17 ar  
    43    16    47 1   
    44    17    20 ar  
    45    17    48 1   
    46    19    20 ar  
    47    20    21 1   
    48    22    23 1   
    49    25    26 1   
    50    26    27 1   
    51    26    57 1   
    52    27    28 2   
    53    27    30 1   
    54    29    30 1   
    55    30    53 1   
    56    33    54 1   
    57    33    55 1   
    58    33    56 1   
    59    49    57 1   
    60    50    57 1   
    61    51    57 1   
    62    52    58 1   
@<TRIPOS>SUBSTRUCTURE
     1 O7K         1 TEMP              0 ****  ****    0 ROOT
