@<TRIPOS>MOLECULE
O7K
   58    62     1     0     0
SMALL
bcc


@<TRIPOS>ATOM
      1 C1          -6.8840    -0.9870     0.5800 c3         1 O7K      -0.156400
      2 C2          -5.7700    -1.5440    -0.2840 c          1 O7K       0.679100
      3 C3          -4.1140    -0.5940     1.3060 c6         1 O7K       0.121000
      4 C7          -0.3380     3.2100    -0.2380 ca         1 O7K       0.401200
      5 C8           1.3020     1.6310    -0.1630 ca         1 O7K       0.338600
      6 C9           0.3830     0.5810     0.0450 ca         1 O7K      -0.076300
      7 C10         -0.9860     0.9220     0.0810 ca         1 O7K       0.078600
      8 C11         -2.3880    -0.7130    -0.9630 c6         1 O7K       0.162800
      9 C12         -3.3730    -1.8320    -0.6670 c6         1 O7K       0.104700
     10 C13         -2.7280    -3.0170     0.0440 c3         1 O7K      -0.104100
     11 C14          0.8400    -0.7420     0.2160 ca         1 O7K      -0.125000
     12 C15          2.1800    -0.9960     0.1550 ca         1 O7K       0.074400
     13 C16          3.1410     0.0220    -0.0610 cp         1 O7K      -0.061000
     14 C19          5.2930    -0.2280    -1.3170 ca         1 O7K       0.194100
     15 C20          6.6590    -0.4970    -1.3360 ca         1 O7K      -0.246000
     16 C21          7.3190    -0.7930    -0.1540 ca         1 O7K      -0.049000
     17 C22          6.6450    -0.8320     1.0580 ca         1 O7K      -0.212000
     18 CL           2.7380    -2.6180     0.3470 cl         1 O7K      -0.088400
     19 C18          4.5880    -0.2560    -0.1100 cp         1 O7K      -0.128000
     20 C23          5.2930    -0.5610     1.0430 ca         1 O7K       0.201900
     21 F1           4.6090    -0.5890     2.1950 f          1 O7K      -0.131900
     22 C17          2.6730     1.2960    -0.2100 ca         1 O7K       0.143600
     23 F            3.5410     2.2860    -0.4010 f          1 O7K      -0.108900
     24 N2           0.9320     2.9200    -0.2910 nb         1 O7K      -0.616000
     25 C6          -1.3560     2.2400    -0.0760 ca         1 O7K      -0.074700
     26 N1          -2.7100     2.5790    -0.1210 n          1 O7K      -0.374000
     27 C5          -3.6570     1.7420     0.4040 c          1 O7K       0.684500
     28 O1          -4.8420     2.0040     0.3920 o          1 O7K      -0.600500
     29 N3          -1.9720    -0.0500     0.2760 nh         1 O7K      -0.602000
     30 C4          -3.0790     0.4880     1.0460 c6         1 O7K       0.091500
     31 N           -4.4920    -1.2750     0.0870 n          1 O7K      -0.485800
     32 O           -6.0190    -2.2080    -1.2810 o          1 O7K      -0.601100
     33 C           -8.2680    -1.3480     0.0690 c3         1 O7K      -0.075100
     34 H1          -6.7650    -1.3540     1.6030 hc         1 O7K       0.064200
     35 H2          -6.7770     0.0980     0.6400 hc         1 O7K       0.064200
     36 H3          -3.6810    -1.3050     2.0150 h1         1 O7K       0.064200
     37 H4          -4.9760    -0.1530     1.7940 h1         1 O7K       0.064200
     38 H5          -0.5950     4.2580    -0.3410 h4         1 O7K       0.031100
     39 H6          -1.5040    -1.1230    -1.4520 h1         1 O7K       0.056200
     40 H7          -2.8480    -0.0050    -1.6670 h1         1 O7K       0.056200
     41 H8          -3.7610    -2.1720    -1.6250 h1         1 O7K       0.093700
     42 H9          -2.2670    -2.7360     0.9910 hc         1 O7K       0.044367
     43 H10         -3.4650    -3.7960     0.2380 hc         1 O7K       0.044367
     44 H11         -1.9490    -3.4440    -0.5880 hc         1 O7K       0.044367
     45 H12          0.1320    -1.5370     0.4010 ha         1 O7K       0.168000
     46 H13          7.2050    -0.4790    -2.2710 ha         1 O7K       0.139000
     47 H14          8.3810    -0.9990    -0.1790 ha         1 O7K       0.137000
     48 H15          7.1530    -1.0630     1.9840 ha         1 O7K       0.156000
     49 H16         -2.5550     4.0670    -1.5870 h1         1 O7K       0.054367
     50 H17         -4.1650     3.8390    -0.9100 h1         1 O7K       0.054367
     51 H18         -2.9310     4.6740     0.0380 h1         1 O7K       0.054367
     52 H19          5.1660     0.0570    -3.1980 ho         1 O7K       0.431000
     53 H20         -2.6870     0.7930     2.0250 h1         1 O7K       0.092700
     54 H21         -8.4200    -2.4260     0.0380 hc         1 O7K       0.041367
     55 H22         -9.0240    -0.9250     0.7310 hc         1 O7K       0.041367
     56 H23         -8.4470    -0.9550    -0.9310 hc         1 O7K       0.041367
     57 C24         -3.1080     3.8650    -0.6710 c3         1 O7K       0.078300
     58 O2           4.5910     0.0560    -2.4240 oh         1 O7K      -0.480100
@<TRIPOS>BOND
     1     1     2 1   
     2     1    33 1   
     3     1    34 1   
     4     1    35 1   
     5     2    31 1   
     6     2    32 2   
     7     3    30 1   
     8     3    31 1   
     9     3    36 1   
    10     3    37 1   
    11     4    24 ar  
    12     4    25 ar  
    13     4    38 1   
    14     5     6 ar  
    15     5    22 ar  
    16     5    24 ar  
    17     6     7 ar  
    18     6    11 ar  
    19     7    25 ar  
    20     7    29 1   
    21     8     9 1   
    22     8    29 1   
    23     8    39 1   
    24     8    40 1   
    25     9    10 1   
    26     9    31 1   
    27     9    41 1   
    28    10    42 1   
    29    10    43 1   
    30    10    44 1   
    31    11    12 ar  
    32    11    45 1   
    33    12    13 ar  
    34    12    18 1   
    35    13    19 1   
    36    13    22 ar  
    37    14    15 ar  
    38    14    19 ar  
    39    14    58 1   
    40    15    16 ar  
    41    15    46 1   
    42    16    17 ar  
    43    16    47 1   
    44    17    20 ar  
    45    17    48 1   
    46    19    20 ar  
    47    20    21 1   
    48    22    23 1   
    49    25    26 1   
    50    26    27 1   
    51    26    57 1   
    52    27    28 2   
    53    27    30 1   
    54    29    30 1   
    55    30    53 1   
    56    33    54 1   
    57    33    55 1   
    58    33    56 1   
    59    49    57 1   
    60    50    57 1   
    61    51    57 1   
    62    52    58 1   
@<TRIPOS>SUBSTRUCTURE
     1 O7K         1 TEMP              0 ****  ****    0 ROOT
