@<TRIPOS>MOLECULE
O7L
   15    15     1     0     0
SMALL
bcc


@<TRIPOS>ATOM
      1 C1          11.8470     0.5860     9.1480 c          1 O7L       0.609700
      2 C2          10.3780     0.5210     9.2460 cc         1 O7L      -0.180700
      3 C3           9.5360    -0.5540     9.1340 cd         1 O7L      -0.110000
      4 C4           8.1840    -0.2000     9.2960 cd         1 O7L      -0.113000
      5 C5           8.0360     1.1440     9.5290 cc         1 O7L      -0.021100
      6 C6           6.8200     1.8310     9.7400 cg         1 O7L       0.252800
      7 N            5.8320     2.3970     9.9140 n1         1 O7L      -0.343800
      8 C           12.5730    -0.7000     8.8980 c3         1 O7L      -0.187100
      9 O           12.4010     1.6570     9.2750 o          1 O7L      -0.520100
     10 S            9.5340     1.9810     9.5510 ss         1 O7L       0.091200
     11 H1           9.8730    -1.5630     8.9420 ha         1 O7L       0.159000
     12 H2           7.3560    -0.8920     9.2450 ha         1 O7L       0.166000
     13 H3          13.6420    -0.5240     8.8150 hc         1 O7L       0.066033
     14 H4          12.3890    -1.4020     9.7130 hc         1 O7L       0.066033
     15 H5          12.2150    -1.1730     7.9830 hc         1 O7L       0.066033
@<TRIPOS>BOND
     1     1     2 1   
     2     1     8 1   
     3     1     9 2   
     4     2     3 2   
     5     2    10 1   
     6     3     4 1   
     7     3    11 1   
     8     4     5 2   
     9     4    12 1   
    10     5     6 1   
    11     5    10 1   
    12     6     7 3   
    13     8    13 1   
    14     8    14 1   
    15     8    15 1   
@<TRIPOS>SUBSTRUCTURE
     1 O7L         1 TEMP              0 ****  ****    0 ROOT
