@<TRIPOS>MOLECULE
O7L
   15    15     1     0     0
SMALL
No Charge or Current Charge


@<TRIPOS>ATOM
      1 C1          11.8810     0.5980     9.1490 c          1 O7L       0.609700
      2 C2          10.4090     0.5950     9.2610 cc         1 O7L      -0.325600
      3 C3           9.5800    -0.5010     9.1520 cd         1 O7L      -0.092000
      4 C4           8.2060    -0.1710     9.3100 cd         1 O7L      -0.095000
      5 C5           7.9950     1.1670     9.5370 cc         1 O7L      -0.166000
      6 C6           6.7460     1.8100     9.7340 cg         1 O7L       0.342000
      7 N            5.7060     2.3140     9.8940 n1         1 O7L      -0.433000
      8 C           12.5870    -0.7300     8.8850 c3         1 O7L      -0.187100
      9 O           12.5300     1.6290     9.2610 o          1 O7L      -0.520100
     10 S            9.5010     2.0720     9.5640 ss         1 O7L       0.381000
     11 H1           9.9210    -1.5160     8.9660 ha         1 O7L       0.141000
     12 H2           7.4060    -0.9050     9.2560 ha         1 O7L       0.148000
     13 H3          13.6760    -0.6230     8.8180 hc         1 O7L       0.066033
     14 H4          12.3000    -1.4470     9.6620 hc         1 O7L       0.066033
     15 H5          12.1700    -1.1810     7.9780 hc         1 O7L       0.066033
@<TRIPOS>BOND
     1     1     2 1   
     2     1     8 1   
     3     1     9 2   
     4     2     3 2   
     5     2    10 1   
     6     3     4 1   
     7     3    11 1   
     8     4     5 2   
     9     4    12 1   
    10     5     6 1   
    11     5    10 1   
    12     6     7 3   
    13     8    13 1   
    14     8    14 1   
    15     8    15 1   
@<TRIPOS>SUBSTRUCTURE
     1 O7L         1 TEMP              0 ****  ****    0 ROOT
