@<TRIPOS>MOLECULE
O7N
   95    96     1     0     0
SMALL
No Charge or Current Charge


@<TRIPOS>ATOM
      1 O3          12.2300   -15.6360     3.1260 o          1 O7N      -0.627100
      2 C4           3.9870   -16.0060     6.0010 c3         1 O7N      -0.099400
      3 C5           2.9240   -16.4610     4.9720 c3         1 O7N       0.101000
      4 C6           2.5470   -14.6470     3.2570 c          1 O7N       0.585100
      5 N1           8.6820   -11.6250     7.8870 nv         1 O7N      -1.075200
      6 C7           1.6790   -13.4000     2.9320 c3         1 O7N       0.028700
      7 C8           0.5270   -13.7670     1.9590 c3         1 O7N      -0.080400
      8 N2           8.1280   -13.2790     6.9380 nu         1 O7N      -0.922400
      9 C9          -0.4980   -12.6390     1.6790 c3         1 O7N      -0.072400
     10 C10         -1.3780   -12.2630     2.8950 c3         1 O7N      -0.084400
     11 C11         -2.4170   -11.1730     2.5640 c3         1 O7N       0.151800
     12 C12          2.5540   -11.0210     2.7120 c          1 O7N       0.590100
     13 N3           2.1810   -15.3350     4.3950 ns         1 O7N      -0.499900
     14 C13          3.7200   -10.1660     2.1290 c3         1 O7N       0.027700
     15 C14          3.2070    -9.1230     1.1070 c3         1 O7N      -0.088400
     16 C15          4.3000    -8.1360     0.6210 c3         1 O7N      -0.074400
     17 N4          -3.2620   -10.8570     3.7290 n8         1 O7N      -0.995200
     18 N            9.8840   -12.2470     6.1240 n2         1 O7N      -0.915100
     19 C            8.8010   -12.1800     6.7220 c2         1 O7N       0.813100
     20 O            3.5010   -14.9870     2.5680 o          1 O7N      -0.595100
     21 C1           7.4510   -14.0440     5.8410 c3         1 O7N       0.150500
     22 C16          3.7760    -7.0120    -0.3040 c3         1 O7N      -0.077400
     23 C17          3.2270    -7.5130    -1.6590 c3         1 O7N       0.147800
     24 C18          5.7270   -11.7010     2.2800 c          1 O7N       0.606100
     25 C19          6.8200   -12.4020     1.4680 c3         1 O7N      -0.110100
     26 C2           6.2340   -14.8020     6.4390 c3         1 O7N      -0.079400
     27 C20          8.1850   -11.7620     1.7070 ca         1 O7N      -0.077300
     28 C21          8.3730   -10.3810     1.5020 ca         1 O7N      -0.103000
     29 C22          9.6260    -9.7950     1.7480 ca         1 O7N      -0.115000
     30 C23         10.6980   -10.5820     2.2030 ca         1 O7N      -0.105000
     31 C24         10.5250   -11.9640     2.4060 ca         1 O7N      -0.095300
     32 C25          9.2680   -12.5480     2.1450 ca         1 O7N      -0.059000
     33 C26         11.6860   -12.8210     2.8980 c3         1 O7N       0.143300
     34 C27         11.5080   -15.1050     3.9600 c          1 O7N       0.585100
     35 C28         10.7840   -15.9250     5.0590 c3         1 O7N       0.018000
     36 C29          8.4220   -15.0010     5.0590 c          1 O7N       0.603100
     37 C3           5.1810   -15.2340     5.3900 c3         1 O7N      -0.070400
     38 N5           2.5530   -12.3550     2.3590 ns         1 O7N      -0.495900
     39 N6           2.8100    -6.3910    -2.5190 n8         1 O7N      -0.996200
     40 N7           4.7960   -11.0030     1.5380 ns         1 O7N      -0.531900
     41 N8          11.2610   -13.7480     3.9470 ns         1 O7N      -0.508900
     42 N9           9.6470   -15.1960     5.6600 ns         1 O7N      -0.493900
     43 O2           5.6640   -11.7650     3.4990 o          1 O7N      -0.576100
     44 H1           4.3720   -16.8970     6.5120 hc         1 O7N       0.040200
     45 H2           3.5030   -15.3890     6.7680 hc         1 O7N       0.040200
     46 H3           2.2050   -17.1220     5.4730 h1         1 O7N       0.058700
     47 H4           3.4030   -17.0400     4.1710 h1         1 O7N       0.058700
     48 H5           9.4520   -11.9120     8.4740 hn         1 O7N       0.461500
     49 H6           8.6230   -10.6180     7.8150 hn         1 O7N       0.461500
     50 H7           1.2610   -13.0420     3.8810 h1         1 O7N       0.083700
     51 H8          -0.0120   -14.6380     2.3540 hc         1 O7N       0.063700
     52 H9           0.9630   -14.0870     1.0040 hc         1 O7N       0.063700
     53 H10          7.5880   -13.1320     7.7790 hn         1 O7N       0.475000
     54 H11         -1.1560   -12.9680     0.8640 hc         1 O7N       0.035700
     55 H12          0.0230   -11.7470     1.3120 hc         1 O7N       0.035700
     56 H13         -0.7420   -11.9090     3.7150 hc         1 O7N       0.051700
     57 H14         -1.8960   -13.1610     3.2540 hc         1 O7N       0.051700
     58 H15         -3.0640   -11.5150     1.7440 h1         1 O7N       0.023200
     59 H16         -1.9020   -10.2570     2.2430 h1         1 O7N       0.023200
     60 H17          1.3730   -14.9880     4.9000 hn         1 O7N       0.324500
     61 H18          4.1430    -9.6260     2.9870 h1         1 O7N       0.106700
     62 H19          2.3950    -8.5470     1.5680 hc         1 O7N       0.058700
     63 H20          2.7720    -9.6510     0.2490 hc         1 O7N       0.058700
     64 H21          5.0920    -8.6860     0.0960 hc         1 O7N       0.043700
     65 H22          4.7710    -7.6720     1.4960 hc         1 O7N       0.043700
     66 H23         -3.9760   -10.1730     3.4480 hn         1 O7N       0.392000
     67 H24         -3.8120   -11.6880     3.9780 hn         1 O7N       0.392000
     68 H26         10.4320   -11.4300     6.4080 hn         1 O7N       0.395400
     69 H27          7.0720   -13.3310     5.0950 h1         1 O7N       0.110700
     70 H28          4.5980    -6.3100    -0.4940 hc         1 O7N       0.050200
     71 H29          2.9960    -6.4480     0.2210 hc         1 O7N       0.050200
     72 H30          2.3600    -8.1670    -1.4950 h1         1 O7N       0.025200
     73 H31          4.0040    -8.0860    -2.1830 h1         1 O7N       0.025200
     74 H32          6.5800   -12.3570     0.4000 hc         1 O7N       0.066200
     75 H33          6.8400   -13.4530     1.7780 hc         1 O7N       0.066200
     76 H34          6.5910   -15.6800     6.9920 hc         1 O7N       0.039200
     77 H35          5.7300   -14.1540     7.1670 hc         1 O7N       0.039200
     78 H36          7.5510    -9.7600     1.1560 ha         1 O7N       0.104000
     79 H37          9.7650    -8.7270     1.5910 ha         1 O7N       0.110000
     80 H38         11.6620   -10.1160     2.3950 ha         1 O7N       0.108000
     81 H39          9.1320   -13.6170     2.2880 ha         1 O7N       0.139000
     82 H40         12.1040   -13.3760     2.0480 h1         1 O7N       0.056700
     83 H41         12.4800   -12.1800     3.3050 h1         1 O7N       0.056700
     84 H42         10.4300   -16.8650     4.6150 h1         1 O7N       0.076200
     85 H43         11.5160   -16.1540     5.8440 h1         1 O7N       0.076200
     86 H44          4.8140   -14.3350     4.8820 hc         1 O7N       0.064200
     87 H45          5.6490   -15.8650     4.6250 hc         1 O7N       0.064200
     88 H46          3.3080   -12.6480     1.7490 hn         1 O7N       0.330500
     89 H47          2.3990    -6.7670    -3.3830 hn         1 O7N       0.392000
     90 H48          2.0240    -5.9020    -2.0730 hn         1 O7N       0.392000
     91 H50          4.9250   -10.9930     0.5330 hn         1 O7N       0.311500
     92 H51         10.6750   -13.3820     4.6990 hn         1 O7N       0.366500
     93 H52          9.7860   -14.6370     6.4990 hn         1 O7N       0.324500
     94 O1           1.7210   -10.5550     3.4780 o          1 O7N      -0.617100
     95 O4           8.1530   -15.5130     3.9790 o          1 O7N      -0.597100
@<TRIPOS>BOND
     1     1    34 2   
     2     2     3 1   
     3     2    37 1   
     4     2    44 1   
     5     2    45 1   
     6     3    13 1   
     7     3    46 1   
     8     3    47 1   
     9     4     6 1   
    10     4    13 1   
    11     4    20 2   
    12     5    19 1   
    13     5    48 1   
    14     5    49 1   
    15     6     7 1   
    16     6    38 1   
    17     6    50 1   
    18     7     9 1   
    19     7    51 1   
    20     7    52 1   
    21     8    19 1   
    22     8    21 1   
    23     8    53 1   
    24     9    10 1   
    25     9    54 1   
    26     9    55 1   
    27    10    11 1   
    28    10    56 1   
    29    10    57 1   
    30    11    17 1   
    31    11    58 1   
    32    11    59 1   
    33    12    14 1   
    34    12    38 1   
    35    12    94 2   
    36    13    60 1   
    37    14    15 1   
    38    14    40 1   
    39    14    61 1   
    40    15    16 1   
    41    15    62 1   
    42    15    63 1   
    43    16    22 1   
    44    16    64 1   
    45    16    65 1   
    46    17    66 1   
    47    17    67 1   
    48    18    19 2   
    49    18    68 1   
    50    21    26 1   
    51    21    36 1   
    52    21    69 1   
    53    22    23 1   
    54    22    70 1   
    55    22    71 1   
    56    23    39 1   
    57    23    72 1   
    58    23    73 1   
    59    24    25 1   
    60    24    40 1   
    61    24    43 2   
    62    25    27 1   
    63    25    74 1   
    64    25    75 1   
    65    26    37 1   
    66    26    76 1   
    67    26    77 1   
    68    27    28 ar  
    69    27    32 ar  
    70    28    29 ar  
    71    28    78 1   
    72    29    30 ar  
    73    29    79 1   
    74    30    31 ar  
    75    30    80 1   
    76    31    32 ar  
    77    31    33 1   
    78    32    81 1   
    79    33    41 1   
    80    33    82 1   
    81    33    83 1   
    82    34    35 1   
    83    34    41 1   
    84    35    42 1   
    85    35    84 1   
    86    35    85 1   
    87    36    42 1   
    88    36    95 2   
    89    37    86 1   
    90    37    87 1   
    91    38    88 1   
    92    39    89 1   
    93    39    90 1   
    94    40    91 1   
    95    41    92 1   
    96    42    93 1   
@<TRIPOS>SUBSTRUCTURE
     1 O7N         1 TEMP              0 ****  ****    0 ROOT
