@<TRIPOS>MOLECULE
O7N
   95    96     1     0     0
SMALL
abcg2


@<TRIPOS>ATOM
      1 O3          10.9970   -16.4020     2.8520 o          1 O7N      -0.627100
      2 C4           3.9210   -14.6860     7.0010 c3         1 O7N      -0.099400
      3 C5           2.7370   -15.4160     6.3790 c3         1 O7N       0.101000
      4 C6           2.2890   -14.9810     3.9880 c          1 O7N       0.585100
      5 N1           9.7360   -10.8360     7.0840 nv         1 O7N      -1.075200
      6 C7           1.7010   -13.9270     3.0440 c3         1 O7N       0.028700
      7 C8           1.2640   -14.5130     1.7070 c3         1 O7N      -0.080400
      8 N2           8.3750   -12.6700     6.7540 nu         1 O7N      -0.922400
      9 C9           0.7490   -13.4660     0.7220 c3         1 O7N      -0.072400
     10 C10         -0.4950   -12.7140     1.1790 c3         1 O7N      -0.084400
     11 C11         -0.9490   -11.6820     0.1580 c3         1 O7N       0.151800
     12 C12          2.6590   -11.6880     3.4250 c          1 O7N       0.590100
     13 N3           2.1350   -14.6830     5.2860 ns         1 O7N      -0.499900
     14 C13          3.6710   -10.6610     2.9100 c3         1 O7N       0.027700
     15 C14          2.9260    -9.4240     2.4010 c3         1 O7N      -0.088400
     16 C15          3.8710    -8.3080     1.9670 c3         1 O7N      -0.074400
     17 N4          -2.1550   -11.0000     0.6040 n8         1 O7N      -0.995200
     18 N            9.7640   -12.0180     5.0420 n2         1 O7N      -0.915100
     19 C            9.3340   -11.8360     6.2380 c2         1 O7N       0.813100
     20 O            2.8640   -15.9750     3.5720 o          1 O7N      -0.595100
     21 C1           7.4360   -13.3710     5.8980 c3         1 O7N       0.150500
     22 C16          3.1650    -6.9820     1.7020 c3         1 O7N      -0.077400
     23 C17          2.1830    -7.0210     0.5390 c3         1 O7N       0.147800
     24 C18          5.8680   -11.4590     2.1140 c          1 O7N       0.606100
     25 C19          6.5720   -12.0720     0.9150 c3         1 O7N      -0.110100
     26 C2           6.2580   -13.8160     6.7740 c3         1 O7N      -0.079400
     27 C20          8.0590   -11.8760     0.9360 ca         1 O7N      -0.077300
     28 C21          8.6280   -10.7730     0.3060 ca         1 O7N      -0.103000
     29 C22         10.0030   -10.5930     0.3240 ca         1 O7N      -0.115000
     30 C23         10.8180   -11.5160     0.9640 ca         1 O7N      -0.105000
     31 C24         10.2660   -12.6280     1.5930 ca         1 O7N      -0.095300
     32 C25          8.8850   -12.7890     1.5820 ca         1 O7N      -0.059000
     33 C26         11.1780   -13.6520     2.2250 c3         1 O7N       0.143300
     34 C27         10.5690   -15.5540     3.6290 c          1 O7N       0.585100
     35 C28          9.9730   -16.0130     4.9590 c3         1 O7N       0.018000
     36 C29          8.0620   -14.5510     5.1720 c          1 O7N       0.603100
     37 C3           5.0960   -14.4830     6.0520 c3         1 O7N      -0.070400
     38 N5           2.6940   -12.8920     2.8390 ns         1 O7N      -0.495900
     39 N6           1.6050    -5.7030     0.3090 n8         1 O7N      -0.996200
     40 N7           4.5540   -11.1930     1.9010 ns         1 O7N      -0.531900
     41 N8          10.6270   -14.2370     3.4220 ns         1 O7N      -0.508900
     42 N9           9.2130   -15.0300     5.6750 ns         1 O7N      -0.493900
     43 O2           6.4180   -11.2750     3.1810 o          1 O7N      -0.576100
     44 H1           4.2470   -15.2640     7.8720 hc         1 O7N       0.040200
     45 H2           3.5850   -13.7190     7.3900 hc         1 O7N       0.040200
     46 H3           1.9730   -15.5890     7.1400 h1         1 O7N       0.058700
     47 H4           3.0450   -16.3920     6.0060 h1         1 O7N       0.058700
     48 H5           9.5210   -10.9300     8.0640 hn         1 O7N       0.461500
     49 H6          10.6570   -10.4640     6.9240 hn         1 O7N       0.461500
     50 H7           0.8460   -13.4610     3.5360 h1         1 O7N       0.083700
     51 H8           0.4870   -15.2590     1.8950 hc         1 O7N       0.063700
     52 H9           2.1020   -15.0490     1.2560 hc         1 O7N       0.063700
     53 H10          8.0050   -12.4080     7.6540 hn         1 O7N       0.475000
     54 H11          0.5340   -13.9700    -0.2240 hc         1 O7N       0.035700
     55 H12          1.5440   -12.7480     0.5000 hc         1 O7N       0.035700
     56 H13         -0.3170   -12.2040     2.1310 hc         1 O7N       0.051700
     57 H14         -1.3050   -13.4310     1.3570 hc         1 O7N       0.051700
     58 H15         -1.0560   -12.1710    -0.8210 h1         1 O7N       0.023200
     59 H16         -0.1610   -10.9320     0.0380 h1         1 O7N       0.023200
     60 H17          1.6750   -13.8160     5.5180 hn         1 O7N       0.324500
     61 H18          4.2840   -10.3700     3.7650 h1         1 O7N       0.106700
     62 H19          2.2840    -9.0610     3.2060 hc         1 O7N       0.058700
     63 H20          2.2630    -9.7120     1.5790 hc         1 O7N       0.058700
     64 H21          4.4230    -8.6090     1.0720 hc         1 O7N       0.043700
     65 H22          4.6210    -8.1590     2.7500 hc         1 O7N       0.043700
     66 H23         -2.4080   -10.2870    -0.0680 hn         1 O7N       0.392000
     67 H24         -2.9270   -11.6560     0.6070 hn         1 O7N       0.392000
     68 H26         10.4470   -11.3150     4.7850 hn         1 O7N       0.395400
     69 H27          7.0690   -12.7120     5.1050 h1         1 O7N       0.110700
     70 H28          3.9140    -6.2130     1.4950 hc         1 O7N       0.050200
     71 H29          2.6410    -6.6640     2.6100 hc         1 O7N       0.050200
     72 H30          1.4240    -7.7950     0.7190 h1         1 O7N       0.025200
     73 H31          2.7170    -7.3210    -0.3660 h1         1 O7N       0.025200
     74 H32          6.1450   -11.6820    -0.0130 hc         1 O7N       0.066200
     75 H33          6.3310   -13.1400     0.9280 hc         1 O7N       0.066200
     76 H34          6.6310   -14.4740     7.5660 hc         1 O7N       0.039200
     77 H35          5.8810   -12.9180     7.2760 hc         1 O7N       0.039200
     78 H36          7.9960   -10.0530    -0.2010 ha         1 O7N       0.104000
     79 H37         10.4430    -9.7300    -0.1620 ha         1 O7N       0.110000
     80 H38         11.8920   -11.3700     0.9740 ha         1 O7N       0.108000
     81 H39          8.4410   -13.6360     2.0900 ha         1 O7N       0.139000
     82 H40         11.3810   -14.4510     1.5110 h1         1 O7N       0.056700
     83 H41         12.1430   -13.1830     2.4450 h1         1 O7N       0.056700
     84 H42          9.3700   -16.8990     4.7530 h1         1 O7N       0.076200
     85 H43         10.7990   -16.3360     5.5940 h1         1 O7N       0.076200
     86 H44          4.7910   -13.8680     5.2000 hc         1 O7N       0.064200
     87 H45          5.3980   -15.4470     5.6390 hc         1 O7N       0.064200
     88 H46          3.4170   -13.0700     2.1590 hn         1 O7N       0.330500
     89 H47          0.9990    -5.7390    -0.5010 hn         1 O7N       0.392000
     90 H48          1.0000    -5.4660     1.0860 hn         1 O7N       0.392000
     91 H50          4.2150   -11.2240     0.9510 hn         1 O7N       0.311500
     92 H51         10.2370   -13.5680     4.1020 hn         1 O7N       0.366500
     93 H52          9.6390   -14.5410     6.4460 hn         1 O7N       0.324500
     94 O1           1.8590   -11.3810     4.2970 o          1 O7N      -0.617100
     95 O4           7.5260   -15.0430     4.1900 o          1 O7N      -0.597100
@<TRIPOS>BOND
     1     1    34 2   
     2     2     3 1   
     3     2    37 1   
     4     2    44 1   
     5     2    45 1   
     6     3    13 1   
     7     3    46 1   
     8     3    47 1   
     9     4     6 1   
    10     4    13 1   
    11     4    20 2   
    12     5    19 1   
    13     5    48 1   
    14     5    49 1   
    15     6     7 1   
    16     6    38 1   
    17     6    50 1   
    18     7     9 1   
    19     7    51 1   
    20     7    52 1   
    21     8    19 1   
    22     8    21 1   
    23     8    53 1   
    24     9    10 1   
    25     9    54 1   
    26     9    55 1   
    27    10    11 1   
    28    10    56 1   
    29    10    57 1   
    30    11    17 1   
    31    11    58 1   
    32    11    59 1   
    33    12    14 1   
    34    12    38 1   
    35    12    94 2   
    36    13    60 1   
    37    14    15 1   
    38    14    40 1   
    39    14    61 1   
    40    15    16 1   
    41    15    62 1   
    42    15    63 1   
    43    16    22 1   
    44    16    64 1   
    45    16    65 1   
    46    17    66 1   
    47    17    67 1   
    48    18    19 2   
    49    18    68 1   
    50    21    26 1   
    51    21    36 1   
    52    21    69 1   
    53    22    23 1   
    54    22    70 1   
    55    22    71 1   
    56    23    39 1   
    57    23    72 1   
    58    23    73 1   
    59    24    25 1   
    60    24    40 1   
    61    24    43 2   
    62    25    27 1   
    63    25    74 1   
    64    25    75 1   
    65    26    37 1   
    66    26    76 1   
    67    26    77 1   
    68    27    28 ar  
    69    27    32 ar  
    70    28    29 ar  
    71    28    78 1   
    72    29    30 ar  
    73    29    79 1   
    74    30    31 ar  
    75    30    80 1   
    76    31    32 ar  
    77    31    33 1   
    78    32    81 1   
    79    33    41 1   
    80    33    82 1   
    81    33    83 1   
    82    34    35 1   
    83    34    41 1   
    84    35    42 1   
    85    35    84 1   
    86    35    85 1   
    87    36    42 1   
    88    36    95 2   
    89    37    86 1   
    90    37    87 1   
    91    38    88 1   
    92    39    89 1   
    93    39    90 1   
    94    40    91 1   
    95    41    92 1   
    96    42    93 1   
@<TRIPOS>SUBSTRUCTURE
     1 O7N         1 TEMP              0 ****  ****    0 ROOT
