@<TRIPOS>MOLECULE
O7O
   38    40     1     0     0
SMALL
No Charge or Current Charge


@<TRIPOS>ATOM
      1 N1           3.1970    41.4610    72.9370 nb         1 O7O      -0.234000
      2 C2           0.3140    40.2920    73.7320 c3         1 O7O      -0.088400
      3 C4           3.9920    42.3080    72.2700 ca         1 O7O       0.406900
      4 C5           5.3590    44.4170    72.6750 ca         1 O7O       0.290000
      5 C6           6.7280    44.1280    72.4190 ca         1 O7O      -0.067300
      6 O1          -1.3560    40.3070    72.0370 o          1 O7O      -0.716000
      7 C3          -0.4750    40.9560    72.5830 c          1 O7O       0.735000
      8 O           -0.1930    42.1060    72.2760 o          1 O7O      -0.716000
      9 S            1.7190    39.2260    73.1370 ss         1 O7O      -0.318300
     10 C1           2.7620    40.3800    72.2570 ca         1 O7O       0.317300
     11 N            3.0530    40.0760    70.9760 nb         1 O7O      -0.214000
     12 C15          4.3380    42.1010    70.9330 ca         1 O7O      -0.328000
     13 C            3.8400    40.9470    70.3190 ca         1 O7O       0.251000
     14 Cl           4.2230    40.5840    68.6450 cl         1 O7O      -0.212000
     15 N2           4.4210    43.4200    72.9700 nu         1 O7O      -0.967900
     16 C14          4.9110    45.7480    72.6630 ca         1 O7O      -0.115000
     17 C13          5.7930    46.7970    72.3660 ca         1 O7O      -0.108000
     18 C12          7.1370    46.5190    72.0880 ca         1 O7O      -0.123000
     19 C11          7.6150    45.1960    72.1120 ca         1 O7O      -0.074300
     20 C10          9.1090    44.9630    71.8440 c6         1 O7O      -0.027100
     21 C9           9.4790    43.4850    71.5980 c6         1 O7O      -0.073400
     22 C8           8.7930    42.5830    72.6380 c6         1 O7O      -0.072400
     23 C7           7.2590    42.6800    72.4970 c6         1 O7O      -0.036100
     24 H1          -0.3810    39.6760    74.3140 h1         1 O7O       0.054700
     25 H2           0.7070    41.0780    74.3870 h1         1 O7O       0.054700
     26 H4           4.9600    42.8020    70.3880 ha         1 O7O       0.137000
     27 H5           3.8230    43.6320    73.7690 hn         1 O7O       0.529000
     28 H6           3.8670    45.9690    72.8690 ha         1 O7O       0.133000
     29 H7           5.4330    47.8240    72.3510 ha         1 O7O       0.111000
     30 H8           7.8160    47.3380    71.8630 ha         1 O7O       0.102000
     31 H9           9.6800    45.3350    72.7050 hc         1 O7O       0.041200
     32 H10          9.4330    45.5640    70.9830 hc         1 O7O       0.041200
     33 H11          9.1690    43.1870    70.5860 hc         1 O7O       0.039200
     34 H12         10.5690    43.3600    71.6440 hc         1 O7O       0.039200
     35 H13          9.1150    41.5410    72.5090 hc         1 O7O       0.039200
     36 H14          9.0960    42.8850    73.6510 hc         1 O7O       0.039200
     37 H15          6.7930    42.1480    73.3370 hc         1 O7O       0.064700
     38 H16          6.9620    42.1390    71.5900 hc         1 O7O       0.064700
@<TRIPOS>BOND
     1     1     3 ar  
     2     1    10 ar  
     3     2     7 1   
     4     2     9 1   
     5     2    24 1   
     6     2    25 1   
     7     3    12 ar  
     8     3    15 1   
     9     4     5 ar  
    10     4    15 1   
    11     4    16 ar  
    12     5    19 ar  
    13     5    23 1   
    14     6     7 1   
    15     7     8 1   
    16     9    10 1   
    17    10    11 ar  
    18    11    13 ar  
    19    12    13 ar  
    20    12    26 1   
    21    13    14 1   
    22    15    27 1   
    23    16    17 ar  
    24    16    28 1   
    25    17    18 ar  
    26    17    29 1   
    27    18    19 ar  
    28    18    30 1   
    29    19    20 1   
    30    20    21 1   
    31    20    31 1   
    32    20    32 1   
    33    21    22 1   
    34    21    33 1   
    35    21    34 1   
    36    22    23 1   
    37    22    35 1   
    38    22    36 1   
    39    23    37 1   
    40    23    38 1   
@<TRIPOS>SUBSTRUCTURE
     1 O7O         1 TEMP              0 ****  ****    0 ROOT
