@<TRIPOS>MOLECULE
O7O
   38    40     1     0     0
SMALL
bcc


@<TRIPOS>ATOM
      1 N1           2.9900    41.5270    72.4160 nb         1 O7O      -0.760000
      2 C2           0.9020    40.1160    73.7470 c3         1 O7O      -0.136300
      3 C4           3.8940    42.3890    71.9380 ca         1 O7O       0.735200
      4 C5           5.1940    44.4010    72.4440 ca         1 O7O       0.151600
      5 C6           6.5580    44.0780    72.3970 ca         1 O7O      -0.067300
      6 O1          -0.2870    41.7530    72.4590 o          1 O7O      -0.821300
      7 C3           0.1170    41.4450    73.5890 c          1 O7O       0.945600
      8 O           -0.0520    42.0530    74.6620 o          1 O7O      -0.821300
      9 S            1.4720    39.3600    72.2150 ss         1 O7O      -0.270400
     10 C1           2.6420    40.5210    71.6460 ca         1 O7O       0.843300
     11 N            3.1150    40.2490    70.4280 nb         1 O7O      -0.740000
     12 C15          4.4380    42.2250    70.6520 ca         1 O7O      -0.476600
     13 C            3.9950    41.1150    69.9760 ca         1 O7O       0.579300
     14 CL           4.6220    40.8010    68.3920 cl         1 O7O      -0.212000
     15 N2           4.2380    43.4030    72.7510 nu         1 O7O      -0.774300
     16 C14          4.7480    45.6960    72.2210 ca         1 O7O      -0.133000
     17 C13          5.6620    46.6960    71.9280 ca         1 O7O      -0.126000
     18 C12          7.0080    46.3840    71.8410 ca         1 O7O      -0.141000
     19 C11          7.4680    45.0880    72.0680 ca         1 O7O      -0.074300
     20 C10          8.9510    44.8200    71.9850 c6         1 O7O      -0.027100
     21 C9           9.2960    43.3400    71.9360 c6         1 O7O      -0.073400
     22 C8           8.5120    42.5970    73.0060 c6         1 O7O      -0.072400
     23 C7           7.0210    42.6780    72.7100 c6         1 O7O      -0.036100
     24 H1           0.2430    39.3620    74.1900 h1         1 O7O       0.054700
     25 H2           1.7410    40.2390    74.4310 h1         1 O7O       0.054700
     26 H4           5.1470    42.9160    70.2230 ha         1 O7O       0.155000
     27 H5           3.6930    43.4970    73.5960 hn         1 O7O       0.473800
     28 H6           3.6880    45.9110    72.2720 ha         1 O7O       0.151000
     29 H7           5.3230    47.7080    71.7530 ha         1 O7O       0.129000
     30 H8           7.7240    47.1590    71.5940 ha         1 O7O       0.120000
     31 H9           9.4360    45.2710    72.8580 hc         1 O7O       0.041200
     32 H10          9.3610    45.3410    71.1160 hc         1 O7O       0.041200
     33 H11          9.0480    42.9270    70.9530 hc         1 O7O       0.039200
     34 H12         10.3710    43.2070    72.0710 hc         1 O7O       0.039200
     35 H13          8.8130    41.5490    73.0560 hc         1 O7O       0.039200
     36 H14          8.7260    43.0330    73.9870 hc         1 O7O       0.039200
     37 H15          6.4440    42.2820    73.5480 hc         1 O7O       0.064700
     38 H16          6.7990    42.0220    71.8610 hc         1 O7O       0.064700
@<TRIPOS>BOND
     1     1     3 ar  
     2     1    10 ar  
     3     2     7 1   
     4     2     9 1   
     5     2    24 1   
     6     2    25 1   
     7     3    12 ar  
     8     3    15 1   
     9     4     5 ar  
    10     4    15 1   
    11     4    16 ar  
    12     5    19 ar  
    13     5    23 1   
    14     6     7 1   
    15     7     8 1   
    16     9    10 1   
    17    10    11 ar  
    18    11    13 ar  
    19    12    13 ar  
    20    12    26 1   
    21    13    14 1   
    22    15    27 1   
    23    16    17 ar  
    24    16    28 1   
    25    17    18 ar  
    26    17    29 1   
    27    18    19 ar  
    28    18    30 1   
    29    19    20 1   
    30    20    21 1   
    31    20    31 1   
    32    20    32 1   
    33    21    22 1   
    34    21    33 1   
    35    21    34 1   
    36    22    23 1   
    37    22    35 1   
    38    22    36 1   
    39    23    37 1   
    40    23    38 1   
@<TRIPOS>SUBSTRUCTURE
     1 O7O         1 TEMP              0 ****  ****    0 ROOT
