@<TRIPOS>MOLECULE
O7P
   48    50     1     0     0
SMALL
No Charge or Current Charge


@<TRIPOS>ATOM
      1 C01         10.4290     6.2870    11.0210 c3         1 O7P      -0.056800
      2 C02          9.5000     7.0890    11.9320 ca         1 O7P      -0.000300
      3 C03          9.9900     7.7860    13.0650 ca         1 O7P      -0.063000
      4 C04         11.3880     7.7710    13.4080 cg         1 O7P       0.332000
      5 C06          9.0980     8.5090    13.8830 ca         1 O7P      -0.032000
      6 C07          7.7280     8.5460    13.5790 ca         1 O7P      -0.193000
      7 C08          7.2410     7.8660    12.4490 ca         1 O7P       0.165100
      8 C10          5.1080     8.9920    12.2810 ca         1 O7P       0.098100
      9 C11          5.5940    10.2770    11.9740 ca         1 O7P      -0.116000
     10 C12          4.7580    11.3980    12.1190 ca         1 O7P      -0.082000
     11 C13          3.4300    11.2430    12.5650 ca         1 O7P      -0.068300
     12 C14          2.5300    12.4640    12.7280 c3         1 O7P      -0.112100
     13 C15          2.8250    13.1760    14.0630 c          1 O7P       0.611100
     14 C17          0.6710    12.2610    15.1040 c6         1 O7P       0.017000
     15 C18         -0.2570    12.2660    16.3470 c          1 O7P       0.551000
     16 C21          1.7560    12.7630    17.7280 c6         1 O7P       0.094000
     17 C22          2.3830    13.4980    16.5250 c6         1 O7P       0.078000
     18 C25          2.9450     9.9530    12.8570 ca         1 O7P      -0.082000
     19 C26          3.7810     8.8320    12.7120 ca         1 O7P      -0.116000
     20 C27          8.1220     7.1350    11.6390 ca         1 O7P      -0.153000
     21 N05         12.5190     7.7660    13.6950 n1         1 O7P      -0.465000
     22 N16          2.0370    12.8900    15.2060 n          1 O7P      -0.418800
     23 N19          0.2950    12.6480    17.5810 n          1 O7P      -0.404800
     24 O09          5.9010     7.8760    12.1360 os         1 O7P      -0.251200
     25 O24          3.7850    13.9330    14.1520 o          1 O7P      -0.583100
     26 H1          10.9350     5.4890    11.5760 hc         1 O7P       0.052700
     27 H2           9.8820     5.8140    10.1960 hc         1 O7P       0.052700
     28 H3          11.1970     6.9300    10.5760 hc         1 O7P       0.052700
     29 H4           9.4670     9.0410    14.7590 ha         1 O7P       0.126000
     30 H5           7.0480     9.0970    14.2230 ha         1 O7P       0.138000
     31 H6           6.6130    10.4090    11.6200 ha         1 O7P       0.131000
     32 H7           5.1430    12.3880    11.8860 ha         1 O7P       0.117000
     33 H8           2.7310    13.1660    11.9110 hc         1 O7P       0.069700
     34 H9           1.4870    12.1430    12.6620 hc         1 O7P       0.069700
     35 H10          0.7890    11.2060    14.8230 h1         1 O7P       0.073200
     36 H11          0.1020    12.7650    14.3110 h1         1 O7P       0.073200
     37 H12          0.0240    13.1010    19.6450 h1         1 O7P       0.045033
     38 H13         -1.4010    13.3880    18.6130 h1         1 O7P       0.045033
     39 H14         -0.9280    11.7170    19.0390 h1         1 O7P       0.045033
     40 H15          2.1880    11.7550    17.8050 h1         1 O7P       0.053700
     41 H16          2.0050    13.3050    18.6510 h1         1 O7P       0.053700
     42 H17          2.0470    14.5450    16.5310 h1         1 O7P       0.071700
     43 H18          3.4740    13.5050    16.6550 h1         1 O7P       0.071700
     44 H19          1.9210     9.8140    13.1950 ha         1 O7P       0.117000
     45 H20          3.4020     7.8380    12.9370 ha         1 O7P       0.131000
     46 H21          7.7280     6.6050    10.7760 ha         1 O7P       0.133000
     47 O23         -1.4460    11.9880    16.2410 o          1 O7P      -0.563000
     48 C20         -0.5510    12.7180    18.7930 c3         1 O7P       0.090300
@<TRIPOS>BOND
     1     1     2 1   
     2     1    26 1   
     3     1    27 1   
     4     1    28 1   
     5     2     3 ar  
     6     2    20 ar  
     7     3     4 1   
     8     3     5 ar  
     9     4    21 3   
    10     5     6 ar  
    11     5    29 1   
    12     6     7 ar  
    13     6    30 1   
    14     7    20 ar  
    15     7    24 1   
    16     8     9 ar  
    17     8    19 ar  
    18     8    24 1   
    19     9    10 ar  
    20     9    31 1   
    21    10    11 ar  
    22    10    32 1   
    23    11    12 1   
    24    11    18 ar  
    25    12    13 1   
    26    12    33 1   
    27    12    34 1   
    28    13    22 1   
    29    13    25 2   
    30    14    15 1   
    31    14    22 1   
    32    14    35 1   
    33    14    36 1   
    34    15    23 1   
    35    15    47 2   
    36    16    17 1   
    37    16    23 1   
    38    16    40 1   
    39    16    41 1   
    40    17    22 1   
    41    17    42 1   
    42    17    43 1   
    43    18    19 ar  
    44    18    44 1   
    45    19    45 1   
    46    20    46 1   
    47    23    48 1   
    48    37    48 1   
    49    38    48 1   
    50    39    48 1   
@<TRIPOS>SUBSTRUCTURE
     1 O7P         1 TEMP              0 ****  ****    0 ROOT
