@<TRIPOS>MOLECULE
O7P
   48    50     1     0     0
SMALL
abcg2


@<TRIPOS>ATOM
      1 C01         10.8890     6.6170    10.5270 c3         1 O7P      -0.056800
      2 C02          9.9110     7.3030    11.4290 ca         1 O7P      -0.000300
      3 C03         10.3410     8.0270    12.5530 ca         1 O7P      -0.063000
      4 C04         11.7300     8.1040    12.8570 cg         1 O7P       0.332000
      5 C06          9.4240     8.6730    13.3800 ca         1 O7P      -0.032000
      6 C07          8.0700     8.6200    13.1090 ca         1 O7P      -0.193000
      7 C08          7.6370     7.9070    11.9940 ca         1 O7P       0.165100
      8 C10          5.3890     8.5840    12.2330 ca         1 O7P       0.098100
      9 C11          5.3080     9.9240    11.8860 ca         1 O7P      -0.116000
     10 C12          4.3010    10.7020    12.4340 ca         1 O7P      -0.082000
     11 C13          3.3730    10.1600    13.3190 ca         1 O7P      -0.068300
     12 C14          2.2830    11.0150    13.8920 c3         1 O7P      -0.112100
     13 C15          2.7340    11.7540    15.1430 c          1 O7P       0.611100
     14 C17          0.6000    13.0030    15.0510 c6         1 O7P       0.017000
     15 C18         -0.4800    13.4240    16.0360 c          1 O7P       0.551000
     16 C21          1.1670    13.3330    17.8610 c6         1 O7P       0.094000
     17 C22          2.2140    13.4880    16.7840 c6         1 O7P       0.078000
     18 C25          3.4760     8.8150    13.6490 ca         1 O7P      -0.082000
     19 C26          4.4830     8.0210    13.1150 ca         1 O7P      -0.116000
     20 C27          8.5530     7.2560    11.1680 ca         1 O7P      -0.153000
     21 N05         12.8560     8.1660    13.1010 n1         1 O7P      -0.465000
     22 N16          1.8650    12.6580    15.6530 n          1 O7P      -0.418800
     23 N19         -0.1660    13.5690    17.3300 n          1 O7P      -0.404800
     24 O09          6.3380     7.7750    11.6490 os         1 O7P      -0.251200
     25 O24          3.8200    11.5340    15.6530 o          1 O7P      -0.583100
     26 H1          11.5400     5.9410    11.0830 hc         1 O7P       0.052700
     27 H2          10.3760     6.0360     9.7620 hc         1 O7P       0.052700
     28 H3          11.5300     7.3410    10.0210 hc         1 O7P       0.052700
     29 H4           9.7720     9.2190    14.2460 ha         1 O7P       0.126000
     30 H5           7.3740     9.1270    13.7640 ha         1 O7P       0.138000
     31 H6           6.0140    10.3560    11.1880 ha         1 O7P       0.131000
     32 H7           4.2310    11.7470    12.1560 ha         1 O7P       0.117000
     33 H8           1.9410    11.7340    13.1430 hc         1 O7P       0.069700
     34 H9           1.4120    10.3990    14.1370 hc         1 O7P       0.069700
     35 H10          0.1840    12.1570    14.5070 h1         1 O7P       0.073200
     36 H11          0.7130    13.8230    14.3320 h1         1 O7P       0.073200
     37 H12         -0.8030    13.9820    19.2590 h1         1 O7P       0.045033
     38 H13         -1.7040    14.8400    18.0100 h1         1 O7P       0.045033
     39 H14         -1.9950    13.1170    18.2870 h1         1 O7P       0.045033
     40 H15          1.2260    12.3380    18.3110 h1         1 O7P       0.053700
     41 H16          1.3590    14.0630    18.6480 h1         1 O7P       0.053700
     42 H17          2.2770    14.5330    16.4650 h1         1 O7P       0.071700
     43 H18          3.1860    13.1990    17.1730 h1         1 O7P       0.071700
     44 H19          2.7600     8.3690    14.3290 ha         1 O7P       0.117000
     45 H20          4.5540     6.9730    13.3740 ha         1 O7P       0.131000
     46 H21          8.1900     6.7120    10.3050 ha         1 O7P       0.133000
     47 O23         -1.6080    13.6230    15.6040 o          1 O7P      -0.563000
     48 C20         -1.2290    13.8930    18.2630 c3         1 O7P       0.090300
@<TRIPOS>BOND
     1     1     2 1   
     2     1    26 1   
     3     1    27 1   
     4     1    28 1   
     5     2     3 ar  
     6     2    20 ar  
     7     3     4 1   
     8     3     5 ar  
     9     4    21 3   
    10     5     6 ar  
    11     5    29 1   
    12     6     7 ar  
    13     6    30 1   
    14     7    20 ar  
    15     7    24 1   
    16     8     9 ar  
    17     8    19 ar  
    18     8    24 1   
    19     9    10 ar  
    20     9    31 1   
    21    10    11 ar  
    22    10    32 1   
    23    11    12 1   
    24    11    18 ar  
    25    12    13 1   
    26    12    33 1   
    27    12    34 1   
    28    13    22 1   
    29    13    25 2   
    30    14    15 1   
    31    14    22 1   
    32    14    35 1   
    33    14    36 1   
    34    15    23 1   
    35    15    47 2   
    36    16    17 1   
    37    16    23 1   
    38    16    40 1   
    39    16    41 1   
    40    17    22 1   
    41    17    42 1   
    42    17    43 1   
    43    18    19 ar  
    44    18    44 1   
    45    19    45 1   
    46    20    46 1   
    47    23    48 1   
    48    37    48 1   
    49    38    48 1   
    50    39    48 1   
@<TRIPOS>SUBSTRUCTURE
     1 O7P         1 TEMP              0 ****  ****    0 ROOT
