@<TRIPOS>MOLECULE
O7R
   22    23     1     0     0
SMALL
No Charge or Current Charge


@<TRIPOS>ATOM
      1 C5         -23.0210     0.7540     9.6440 ca         1 O7R       0.157100
      2 C6         -24.6250     2.3250     9.7140 c5         1 O7R       0.147600
      3 C3         -20.9700    -0.4670     9.2830 ca         1 O7R      -0.034000
      4 C2         -20.2420     0.7550     9.2710 ca         1 O7R      -0.220600
      5 C1         -18.7400     0.7870     9.0700 c          1 O7R       0.589700
      6 C9         -20.9440     1.9730     9.4570 ca         1 O7R       0.001000
      7 O          -18.1310     1.8500     9.0640 o          1 O7R      -0.533100
      8 C          -17.9730    -0.5220     8.8700 c3         1 O7R      -0.195100
      9 C8         -22.3340     1.9410     9.6410 ca         1 O7R      -0.192300
     10 C7         -23.2590     3.0920     9.8790 c5         1 O7R      -0.051100
     11 O1         -24.3650     0.8860     9.8500 os         1 O7R      -0.327100
     12 C4         -22.3660    -0.4680     9.4750 ca         1 O7R      -0.159000
     13 H1         -25.3780     2.6390    10.4490 h1         1 O7R       0.060700
     14 H2         -20.4690    -1.4230     9.1480 ha         1 O7R       0.115000
     15 H3         -20.4210     2.9290     9.4630 ha         1 O7R       0.136000
     16 H4         -16.8970    -0.3620     8.7340 hc         1 O7R       0.060033
     17 H5         -18.1750    -1.1880     9.7160 hc         1 O7R       0.060033
     18 H6         -18.4070    -1.0660     8.0240 hc         1 O7R       0.060033
     19 H7         -23.1470     3.5140    10.8840 hc         1 O7R       0.065700
     20 H8         -22.9250    -1.3990     9.4890 ha         1 O7R       0.133000
     21 H9         -25.0370     2.4980     8.7110 h1         1 O7R       0.060700
     22 H10        -23.1460     3.9020     9.1500 hc         1 O7R       0.065700
@<TRIPOS>BOND
     1     1     9 ar  
     2     1    11 1   
     3     1    12 ar  
     4     2    10 1   
     5     2    11 1   
     6     2    13 1   
     7     2    21 1   
     8     3     4 ar  
     9     3    12 ar  
    10     3    14 1   
    11     4     5 1   
    12     4     6 ar  
    13     5     7 2   
    14     5     8 1   
    15     6     9 ar  
    16     6    15 1   
    17     8    16 1   
    18     8    17 1   
    19     8    18 1   
    20     9    10 1   
    21    10    19 1   
    22    10    22 1   
    23    12    20 1   
@<TRIPOS>SUBSTRUCTURE
     1 O7R         1 TEMP              0 ****  ****    0 ROOT
