@<TRIPOS>MOLECULE
O7R
   22    23     1     0     0
SMALL
bcc


@<TRIPOS>ATOM
      1 C5         -22.9840     0.7610     9.6090 ca         1 O7R       0.157100
      2 C6         -24.6070     2.3230     9.7360 c5         1 O7R       0.124400
      3 C3         -20.9660    -0.4360     9.2740 ca         1 O7R      -0.052000
      4 C2         -20.2420     0.7580     9.2590 ca         1 O7R      -0.220600
      5 C1         -18.7720     0.7820     9.0690 c          1 O7R       0.589700
      6 C9         -20.9240     1.9730     9.4320 ca         1 O7R      -0.017000
      7 O          -18.1680     1.8370     9.0400 o          1 O7R      -0.533100
      8 C          -18.0480    -0.5300     8.9130 c3         1 O7R      -0.195100
      9 C8         -22.2860     1.9670     9.6060 ca         1 O7R      -0.192300
     10 C7         -23.2710     3.0710     9.8600 c5         1 O7R      -0.051100
     11 O1         -24.3010     0.9130     9.7870 os         1 O7R      -0.303900
     12 C4         -22.3440    -0.4560     9.4460 ca         1 O7R      -0.177000
     13 H1         -25.3050     2.5460    10.5410 h1         1 O7R       0.060700
     14 H2         -20.4590    -1.3830     9.1420 ha         1 O7R       0.133000
     15 H3         -20.3750     2.9060     9.4290 ha         1 O7R       0.154000
     16 H4         -16.9800    -0.3590     8.8020 hc         1 O7R       0.060033
     17 H5         -18.2130    -1.1770     9.7760 hc         1 O7R       0.060033
     18 H6         -18.4090    -1.0700     8.0360 hc         1 O7R       0.060033
     19 H7         -23.1330     3.4980    10.8560 hc         1 O7R       0.065700
     20 H8         -22.8920    -1.3890     9.4510 ha         1 O7R       0.151000
     21 H9         -25.0960     2.5300     8.7820 h1         1 O7R       0.060700
     22 H10        -23.1970     3.8860     9.1410 hc         1 O7R       0.065700
@<TRIPOS>BOND
     1     1     9 ar  
     2     1    11 1   
     3     1    12 ar  
     4     2    10 1   
     5     2    11 1   
     6     2    13 1   
     7     2    21 1   
     8     3     4 ar  
     9     3    12 ar  
    10     3    14 1   
    11     4     5 1   
    12     4     6 ar  
    13     5     7 2   
    14     5     8 1   
    15     6     9 ar  
    16     6    15 1   
    17     8    16 1   
    18     8    17 1   
    19     8    18 1   
    20     9    10 1   
    21    10    19 1   
    22    10    22 1   
    23    12    20 1   
@<TRIPOS>SUBSTRUCTURE
     1 O7R         1 TEMP              0 ****  ****    0 ROOT
