@<TRIPOS>MOLECULE
O7T
   83    90     1     0     0
SMALL
abcg2


@<TRIPOS>ATOM
      1 C45        -20.1260    -1.0740   -18.2380 ca         1 O7T      -0.096000
      2 C22        -22.1950     8.4190   -16.3020 ca         1 O7T      -0.099000
      3 C44        -20.8640    -0.4430   -17.2420 ca         1 O7T      -0.114000
      4 C46        -19.1750    -0.3530   -18.9560 ca         1 O7T      -0.114000
      5 C21        -23.0540     9.2840   -15.6280 ca         1 O7T      -0.108500
      6 C23        -22.4600     7.0540   -16.3130 ca         1 O7T      -0.108500
      7 C13        -27.9530     9.9700   -10.6620 ca         1 O7T      -0.136000
      8 C37        -18.8090     7.5030   -17.4440 ca         1 O7T      -0.137000
      9 C14        -28.4520     9.6260   -11.9310 ca         1 O7T      -0.096000
     10 C38        -18.6660     7.2930   -16.0630 ca         1 O7T      -0.101000
     11 C43        -20.6490     0.9000   -16.9590 ca         1 O7T      -0.084500
     12 C47        -18.9600     0.9900   -18.6750 ca         1 O7T      -0.084500
     13 C5         -22.1890     6.9500   -12.1500 ca         1 O7T      -0.041000
     14 C7         -23.5820     5.0270   -12.5090 ca         1 O7T      -0.041000
     15 C20        -24.1680     8.7850   -14.9650 ca         1 O7T      -0.092000
     16 C24        -23.5780     6.5570   -15.6500 ca         1 O7T      -0.092000
     17 C12        -26.7580     9.4460   -10.1910 ca         1 O7T      -0.049000
     18 C36        -19.0790     6.4490   -18.3010 ca         1 O7T      -0.055000
     19 C15        -27.7740     8.7450   -12.7630 ca         1 O7T      -0.116000
     20 C39        -18.7880     6.0320   -15.4990 ca         1 O7T      -0.102000
     21 C4         -21.0760     6.2160   -12.5130 ca         1 O7T      -0.172500
     22 C8         -22.4700     4.2740   -12.8630 ca         1 O7T      -0.172500
     23 C42        -19.6910     1.6280   -17.6690 ca         1 O7T      -0.113900
     24 C6         -23.4630     6.3730   -12.1710 ca         1 O7T      -0.139900
     25 C19        -24.4370     7.4160   -14.9690 ca         1 O7T      -0.123300
     26 C11        -26.0590     8.5640   -11.0170 ca         1 O7T       0.068400
     27 C35        -19.1950     5.1700   -17.7510 ca         1 O7T       0.059400
     28 C16        -26.5770     8.2190   -12.2840 ca         1 O7T      -0.075200
     29 C34        -19.0550     4.9690   -16.3600 ca         1 O7T      -0.066200
     30 C3         -21.2140     4.8800   -12.9020 ca         1 O7T       0.151100
     31 C9         -24.6450     7.1990   -11.9010 cc         1 O7T       0.479400
     32 C41        -19.4600     3.0590   -17.4190 cc         1 O7T       0.461400
     33 C28        -17.3590     2.2100   -13.1150 c6         1 O7T      -0.111900
     34 C32        -16.5180     2.8360   -15.3930 c6         1 O7T      -0.111900
     35 C29        -15.9340     2.4020   -12.5880 c6         1 O7T       0.148800
     36 C31        -15.1230     3.0070   -14.7890 c6         1 O7T       0.148800
     37 C27        -17.6090     3.0890   -14.3460 c6         1 O7T      -0.068700
     38 C1         -20.1680     2.9950   -13.9670 c3         1 O7T       0.155600
     39 C25        -19.0040     2.8330   -14.9360 c3         1 O7T       0.094300
     40 N10        -24.8540     7.9110   -10.8120 nd         1 O7T      -0.568100
     41 N40        -19.4450     3.9630   -18.3780 nd         1 O7T      -0.565100
     42 N17        -25.6590     7.3370   -12.8270 na         1 O7T      -0.187600
     43 N33        -19.2320     3.6030   -16.1690 na         1 O7T      -0.187600
     44 N30        -14.8900     2.1900   -13.5940 n7         1 O7T      -0.844400
     45 H1         -20.2920    -2.1220   -18.4570 ha         1 O7T       0.117000
     46 H3         -21.6140    -0.9940   -16.6890 ha         1 O7T       0.118000
     47 H4         -18.5980    -0.8390   -19.7320 ha         1 O7T       0.118000
     48 H5         -22.8520    10.3480   -15.6150 ha         1 O7T       0.120000
     49 H6         -21.7850     6.3770   -16.8200 ha         1 O7T       0.120000
     50 H7         -28.5150    10.6590   -10.0450 ha         1 O7T       0.113000
     51 H8         -18.7150     8.5060   -17.8400 ha         1 O7T       0.114000
     52 H9         -29.3860    10.0570   -12.2670 ha         1 O7T       0.112000
     53 H10        -18.4660     8.1390   -15.4170 ha         1 O7T       0.113000
     54 H11        -21.2460     1.3870   -16.1990 ha         1 O7T       0.121000
     55 H12        -18.2190     1.5510   -19.2280 ha         1 O7T       0.121000
     56 H13        -22.0810     7.9940   -11.8870 ha         1 O7T       0.125000
     57 H14        -24.5550     4.5530   -12.5010 ha         1 O7T       0.125000
     58 H15        -24.8230     9.4600   -14.4280 ha         1 O7T       0.114000
     59 H16        -23.7700     5.4920   -15.6370 ha         1 O7T       0.114000
     60 H17        -26.3710     9.7140    -9.2160 ha         1 O7T       0.128000
     61 H18        -19.1960     6.6000   -19.3670 ha         1 O7T       0.129000
     62 H19        -28.1660     8.4860   -13.7380 ha         1 O7T       0.116000
     63 H20        -18.6970     5.8920   -14.4350 ha         1 O7T       0.131000
     64 H21        -20.0940     6.6700   -12.5300 ha         1 O7T       0.122500
     65 H22        -22.5960     3.2310   -13.1110 ha         1 O7T       0.122500
     66 H23        -18.0690     2.4470   -12.3200 hc         1 O7T       0.048450
     67 H24        -17.5080     1.1580   -13.3830 hc         1 O7T       0.048450
     68 H25        -16.6320     3.5150   -16.2410 hc         1 O7T       0.048450
     69 H26        -16.6220     1.8150   -15.7790 hc         1 O7T       0.048450
     70 H27        -15.7520     1.7250   -11.7500 h1         1 O7T       0.056450
     71 H28        -15.8280     3.4240   -12.2070 h1         1 O7T       0.056450
     72 H29        -14.3590     2.7640   -15.5300 h1         1 O7T       0.056450
     73 H30        -14.9800     4.0560   -14.5080 h1         1 O7T       0.056450
     74 H31        -17.5400     4.1310   -14.0270 hc         1 O7T       0.074700
     75 H34        -21.0980     2.9340   -14.5310 h1         1 O7T       0.052200
     76 H35        -20.1570     2.1920   -13.2270 h1         1 O7T       0.052200
     77 H36        -19.0260     1.7880   -15.2420 h1         1 O7T       0.075700
     78 H37        -14.8910     1.2110   -13.8630 hn         1 O7T       0.400000
     79 O2         -20.0770     4.2560   -13.3040 os         1 O7T      -0.356100
     80 C18        -25.6290     6.8730   -14.2150 c3         1 O7T       0.134900
     81 H2         -21.3190     8.8030   -16.8060 ha         1 O7T       0.116000
     82 H32        -26.5580     7.2050   -14.6760 h1         1 O7T       0.063200
     83 H33        -25.6290     5.7850   -14.2410 h1         1 O7T       0.063200
@<TRIPOS>BOND
     1     1     3 ar  
     2     1     4 ar  
     3     1    45 1   
     4     2     5 ar  
     5     2     6 ar  
     6     2    81 1   
     7     3    11 ar  
     8     3    46 1   
     9     4    12 ar  
    10     4    47 1   
    11     5    15 ar  
    12     5    48 1   
    13     6    16 ar  
    14     6    49 1   
    15     7     9 ar  
    16     7    17 ar  
    17     7    50 1   
    18     8    10 ar  
    19     8    18 ar  
    20     8    51 1   
    21     9    19 ar  
    22     9    52 1   
    23    10    20 ar  
    24    10    53 1   
    25    11    23 ar  
    26    11    54 1   
    27    12    23 ar  
    28    12    55 1   
    29    13    21 ar  
    30    13    24 ar  
    31    13    56 1   
    32    14    22 ar  
    33    14    24 ar  
    34    14    57 1   
    35    15    25 ar  
    36    15    58 1   
    37    16    25 ar  
    38    16    59 1   
    39    17    26 ar  
    40    17    60 1   
    41    18    27 ar  
    42    18    61 1   
    43    19    28 ar  
    44    19    62 1   
    45    20    29 ar  
    46    20    63 1   
    47    21    30 ar  
    48    21    64 1   
    49    22    30 ar  
    50    22    65 1   
    51    23    32 1   
    52    24    31 1   
    53    25    80 1   
    54    26    28 ar  
    55    26    40 1   
    56    27    29 ar  
    57    27    41 1   
    58    28    42 1   
    59    29    43 1   
    60    30    79 1   
    61    31    40 2   
    62    31    42 1   
    63    32    41 2   
    64    32    43 1   
    65    33    35 1   
    66    33    37 1   
    67    33    66 1   
    68    33    67 1   
    69    34    36 1   
    70    34    37 1   
    71    34    68 1   
    72    34    69 1   
    73    35    44 1   
    74    35    70 1   
    75    35    71 1   
    76    36    44 1   
    77    36    72 1   
    78    36    73 1   
    79    37    39 1   
    80    37    74 1   
    81    38    39 1   
    82    38    75 1   
    83    38    76 1   
    84    38    79 1   
    85    39    43 1   
    86    39    77 1   
    87    42    80 1   
    88    44    78 1   
    89    80    82 1   
    90    80    83 1   
@<TRIPOS>SUBSTRUCTURE
     1 O7T         1 TEMP              0 ****  ****    0 ROOT
