@<TRIPOS>MOLECULE
O7T
   83    90     1     0     0
SMALL
No Charge or Current Charge


@<TRIPOS>ATOM
      1 C45        -19.9000    -1.0180   -18.5600 ca         1 O7T      -0.096000
      2 C22        -22.4210     7.1840   -16.4960 ca         1 O7T      -0.099000
      3 C44        -20.6000    -0.4170   -17.5030 ca         1 O7T      -0.114000
      4 C46        -18.9850    -0.2620   -19.3090 ca         1 O7T      -0.114000
      5 C21        -22.8230     8.3180   -15.7700 ca         1 O7T      -0.108500
      6 C23        -23.1940     6.0120   -16.4460 ca         1 O7T      -0.108500
      7 C13        -27.8250    10.3280   -10.3970 ca         1 O7T      -0.136000
      8 C37        -18.5530     7.6090   -17.5560 ca         1 O7T      -0.137000
      9 C14        -28.4780     9.9010   -11.5780 ca         1 O7T      -0.096000
     10 C38        -18.5750     7.4070   -16.1580 ca         1 O7T      -0.101000
     11 C43        -20.3750     0.9330   -17.1840 ca         1 O7T      -0.084500
     12 C47        -18.7590     1.0890   -18.9920 ca         1 O7T      -0.084500
     13 C5         -22.2040     7.0720   -11.9740 ca         1 O7T      -0.041000
     14 C7         -23.6800     5.2350   -12.5730 ca         1 O7T      -0.041000
     15 C20        -23.9900     8.2780   -14.9870 ca         1 O7T      -0.092000
     16 C24        -24.3630     5.9710   -15.6650 ca         1 O7T      -0.092000
     17 C12        -26.5600     9.8040   -10.0510 ca         1 O7T      -0.049000
     18 C36        -18.7100     6.5160   -18.4330 ca         1 O7T      -0.055000
     19 C15        -27.8690     8.9510   -12.4230 ca         1 O7T      -0.116000
     20 C39        -18.7520     6.1120   -15.6280 ca         1 O7T      -0.102000
     21 C4         -21.0960     6.3070   -12.3750 ca         1 O7T      -0.172500
     22 C8         -22.5720     4.4680   -12.9680 ca         1 O7T      -0.172500
     23 C42        -19.4260     1.6940   -17.9040 ca         1 O7T      -0.113900
     24 C6         -23.5080     6.5610   -12.1230 ca         1 O7T      -0.139900
     25 C19        -24.7630     7.0990   -14.9190 ca         1 O7T      -0.123300
     26 C11        -25.9730     8.8580   -10.9040 ca         1 O7T       0.068400
     27 C35        -18.8880     5.2370   -17.8850 ca         1 O7T       0.059400
     28 C16        -26.6080     8.4570   -12.0480 ca         1 O7T      -0.075200
     29 C34        -18.9060     5.0420   -16.5290 ca         1 O7T      -0.066200
     30 C3         -21.2760     5.0200   -12.9040 ca         1 O7T       0.151100
     31 C9         -24.6650     7.4010   -11.8110 cc         1 O7T       0.479400
     32 C41        -19.2110     3.1210   -17.6190 cc         1 O7T       0.461400
     33 C28        -17.4780     2.2420   -13.0380 c6         1 O7T      -0.111900
     34 C32        -16.3840     2.9300   -15.2200 c6         1 O7T      -0.111900
     35 C29        -16.1050     2.4030   -12.3420 c6         1 O7T       0.148800
     36 C31        -15.0420     3.0690   -14.4620 c6         1 O7T       0.148800
     37 C27        -17.6030     3.1750   -14.2800 c6         1 O7T      -0.068700
     38 C1         -20.2580     3.1600   -14.1650 c3         1 O7T       0.155600
     39 C25        -18.9740     2.9860   -15.0270 c3         1 O7T       0.094300
     40 N10        -24.7460     8.2200   -10.7420 nd         1 O7T      -0.568100
     41 N40        -19.0630     4.0510   -18.5830 nd         1 O7T      -0.565100
     42 N17        -25.7820     7.5500   -12.6490 na         1 O7T      -0.187600
     43 N33        -19.0950     3.6920   -16.3370 na         1 O7T      -0.187600
     44 N30        -14.9960     2.1580   -13.2940 n7         1 O7T      -0.844400
     45 H1         -20.0770    -2.0630   -18.8080 ha         1 O7T       0.117000
     46 H3         -21.3270    -0.9950   -16.9350 ha         1 O7T       0.118000
     47 H4         -18.4520    -0.7210   -20.1400 ha         1 O7T       0.118000
     48 H5         -22.2260     9.2260   -15.8090 ha         1 O7T       0.120000
     49 H6         -22.8830     5.1330   -17.0060 ha         1 O7T       0.120000
     50 H7         -28.3000    11.0620    -9.7510 ha         1 O7T       0.113000
     51 H8         -18.4150     8.6100   -17.9570 ha         1 O7T       0.114000
     52 H9         -29.4540    10.3080   -11.8340 ha         1 O7T       0.112000
     53 H10        -18.4540     8.2540   -15.4850 ha         1 O7T       0.113000
     54 H11        -20.9550     1.3870   -16.3850 ha         1 O7T       0.121000
     55 H12        -18.0510     1.6640   -19.5850 ha         1 O7T       0.121000
     56 H13        -22.0510     8.0830   -11.6030 ha         1 O7T       0.125000
     57 H14        -24.6770     4.8070   -12.6470 ha         1 O7T       0.125000
     58 H15        -24.2850     9.1590   -14.4210 ha         1 O7T       0.114000
     59 H16        -24.9450     5.0530   -15.6250 ha         1 O7T       0.114000
     60 H17        -26.0520    10.1240    -9.1440 ha         1 O7T       0.128000
     61 H18        -18.6960     6.6590   -19.5100 ha         1 O7T       0.129000
     62 H19        -28.3700     8.6180   -13.3280 ha         1 O7T       0.116000
     63 H20        -18.7640     5.9730   -14.5540 ha         1 O7T       0.131000
     64 H21        -20.0970     6.7270   -12.3110 ha         1 O7T       0.122500
     65 H22        -22.7410     3.4620   -13.3390 ha         1 O7T       0.122500
     66 H23        -18.2690     2.4650   -12.3090 hc         1 O7T       0.048450
     67 H24        -17.6160     1.1940   -13.3370 hc         1 O7T       0.048450
     68 H25        -16.3910     3.6460   -16.0530 hc         1 O7T       0.048450
     69 H26        -16.4510     1.9300   -15.6700 hc         1 O7T       0.048450
     70 H27        -16.0330     1.6980   -11.5000 h1         1 O7T       0.056450
     71 H28        -16.0190     3.4200   -11.9280 h1         1 O7T       0.056450
     72 H29        -14.2090     2.8420   -15.1440 h1         1 O7T       0.056450
     73 H30        -14.9180     4.1100   -14.1250 h1         1 O7T       0.056450
     74 H31        -17.5560     4.2130   -13.9270 hc         1 O7T       0.074700
     75 H34        -21.1180     3.2010   -14.8450 h1         1 O7T       0.052200
     76 H35        -20.3880     2.2920   -13.5060 h1         1 O7T       0.052200
     77 H36        -18.9660     1.9200   -15.2790 h1         1 O7T       0.075700
     78 H37        -15.0760     1.1930   -13.6380 hn         1 O7T       0.400000
     79 O2         -20.1640     4.3640   -13.3830 os         1 O7T      -0.356100
     80 C18        -25.9970     7.0220   -14.0170 c3         1 O7T       0.134900
     81 H2         -21.5150     7.2130   -17.0950 ha         1 O7T       0.116000
     82 H32        -26.8030     7.5840   -14.5020 h1         1 O7T       0.063200
     83 H33        -26.3330     5.9820   -13.9330 h1         1 O7T       0.063200
@<TRIPOS>BOND
     1     1     3 ar  
     2     1     4 ar  
     3     1    45 1   
     4     2     5 ar  
     5     2     6 ar  
     6     2    81 1   
     7     3    11 ar  
     8     3    46 1   
     9     4    12 ar  
    10     4    47 1   
    11     5    15 ar  
    12     5    48 1   
    13     6    16 ar  
    14     6    49 1   
    15     7     9 ar  
    16     7    17 ar  
    17     7    50 1   
    18     8    10 ar  
    19     8    18 ar  
    20     8    51 1   
    21     9    19 ar  
    22     9    52 1   
    23    10    20 ar  
    24    10    53 1   
    25    11    23 ar  
    26    11    54 1   
    27    12    23 ar  
    28    12    55 1   
    29    13    21 ar  
    30    13    24 ar  
    31    13    56 1   
    32    14    22 ar  
    33    14    24 ar  
    34    14    57 1   
    35    15    25 ar  
    36    15    58 1   
    37    16    25 ar  
    38    16    59 1   
    39    17    26 ar  
    40    17    60 1   
    41    18    27 ar  
    42    18    61 1   
    43    19    28 ar  
    44    19    62 1   
    45    20    29 ar  
    46    20    63 1   
    47    21    30 ar  
    48    21    64 1   
    49    22    30 ar  
    50    22    65 1   
    51    23    32 1   
    52    24    31 1   
    53    25    80 1   
    54    26    28 ar  
    55    26    40 1   
    56    27    29 ar  
    57    27    41 1   
    58    28    42 1   
    59    29    43 1   
    60    30    79 1   
    61    31    40 2   
    62    31    42 1   
    63    32    41 2   
    64    32    43 1   
    65    33    35 1   
    66    33    37 1   
    67    33    66 1   
    68    33    67 1   
    69    34    36 1   
    70    34    37 1   
    71    34    68 1   
    72    34    69 1   
    73    35    44 1   
    74    35    70 1   
    75    35    71 1   
    76    36    44 1   
    77    36    72 1   
    78    36    73 1   
    79    37    39 1   
    80    37    74 1   
    81    38    39 1   
    82    38    75 1   
    83    38    76 1   
    84    38    79 1   
    85    39    43 1   
    86    39    77 1   
    87    42    80 1   
    88    44    78 1   
    89    80    82 1   
    90    80    83 1   
@<TRIPOS>SUBSTRUCTURE
     1 O7T         1 TEMP              0 ****  ****    0 ROOT
