@<TRIPOS>MOLECULE
O7U
   15    15     1     0     0
SMALL
No Charge or Current Charge


@<TRIPOS>ATOM
      1 N1          -1.6960     0.7940     0.2550 ns         1 O7U      -0.430100
      2 C2          -1.5690    -0.5520     0.0330 c          1 O7U       0.633000
      3 O2          -2.5230    -1.3060     0.0540 o          1 O7U      -0.558000
      4 N3          -0.3250    -0.9950    -0.2320 ns         1 O7U      -0.637900
      5 N4           1.5750    -0.4210     1.3470 n8         1 O7U      -1.144300
      6 O4           2.2640    -0.6320    -1.0210 o          1 O7U      -0.571000
      7 P4           1.1280    -0.2040    -0.1800 py         1 O7U       1.198300
      8 C5           0.5740     1.4570    -0.0920 ce         1 O7U      -0.601600
      9 C6          -0.7100     1.7810     0.1310 c2         1 O7U       0.078600
     10 HN1         -2.6430     1.0950     0.4540 hn         1 O7U       0.347500
     11 HN3         -0.2290    -1.9630    -0.4820 hn         1 O7U       0.340500
     12 HN4          2.5870    -0.3110     1.3450 hn         1 O7U       0.466500
     13 HN4A         1.2220     0.4130     1.8120 hn         1 O7U       0.466500
     14 H5           1.3400     2.2140    -0.2410 ha         1 O7U       0.221000
     15 H6          -1.0800     2.8090     0.1950 h4         1 O7U       0.191000
@<TRIPOS>BOND
     1     1     2 1   
     2     1     9 1   
     3     1    10 1   
     4     2     3 2   
     5     2     4 1   
     6     4     7 1   
     7     4    11 1   
     8     5     7 1   
     9     5    12 1   
    10     5    13 1   
    11     6     7 2   
    12     7     8 1   
    13     8     9 2   
    14     8    14 1   
    15     9    15 1   
@<TRIPOS>SUBSTRUCTURE
     1 O7U         1 TEMP              0 ****  ****    0 ROOT
