@<TRIPOS>MOLECULE
O7U
   15    15     1     0     0
SMALL
abcg2


@<TRIPOS>ATOM
      1 N1          -1.7980     0.8500    -0.0380 ns         1 O7U      -0.430100
      2 C2          -1.6220    -0.5090     0.0130 c          1 O7U       0.633000
      3 O2          -2.5700    -1.2720     0.0270 o          1 O7U      -0.558000
      4 N3          -0.3250    -0.9400     0.0650 ns         1 O7U      -0.637900
      5 N4           1.9560    -0.5450     1.2730 n8         1 O7U      -1.144300
      6 O4           1.9400    -0.4060    -1.3110 o          1 O7U      -0.571000
      7 P4           1.1390    -0.0820    -0.0970 py         1 O7U       1.198300
      8 C5           0.5030     1.5580    -0.0130 ce         1 O7U      -0.601600
      9 C6          -0.8140     1.8010    -0.0200 c2         1 O7U       0.078600
     10 HN1         -2.7560     1.1640    -0.0590 hn         1 O7U       0.347500
     11 HN3         -0.2450    -1.9490     0.1240 hn         1 O7U       0.340500
     12 HN4          2.9550    -0.4010     1.2590 hn         1 O7U       0.466500
     13 HN4A         1.5560    -0.2940     2.1660 hn         1 O7U       0.466500
     14 H5           1.1920     2.3910     0.0000 ha         1 O7U       0.221000
     15 H6          -1.1950     2.8130    -0.0110 h4         1 O7U       0.191000
@<TRIPOS>BOND
     1     1     2 1   
     2     1     9 1   
     3     1    10 1   
     4     2     3 2   
     5     2     4 1   
     6     4     7 1   
     7     4    11 1   
     8     5     7 1   
     9     5    12 1   
    10     5    13 1   
    11     6     7 2   
    12     7     8 1   
    13     8     9 2   
    14     8    14 1   
    15     9    15 1   
@<TRIPOS>SUBSTRUCTURE
     1 O7U         1 TEMP              0 ****  ****    0 ROOT
