@<TRIPOS>MOLECULE
O7W
   59    62     1     0     0
SMALL
No Charge or Current Charge


@<TRIPOS>ATOM
      1 C26        -27.3740     0.7910    -8.4500 ca         1 O7W      -0.143000
      2 C25        -27.9800    -0.4150    -8.0190 ca         1 O7W      -0.090000
      3 C27        -26.1760     0.7630    -9.1980 ca         1 O7W      -0.057000
      4 C4         -14.5430    -0.2540   -11.2860 ca         1 O7W      -0.109500
      5 C31        -13.2060     1.7200   -10.8200 ca         1 O7W      -0.109500
      6 C5         -15.7150     0.5170   -11.1880 ca         1 O7W      -0.097500
      7 C30        -14.3770     2.4910   -10.7210 ca         1 O7W      -0.097500
      8 C24        -27.3930    -1.6610    -8.3330 ca         1 O7W      -0.131000
      9 C21        -24.3230    -2.2580   -10.2300 cc         1 O7W      -0.166100
     10 C28        -25.6240    -0.4920    -9.4910 ca         1 O7W      -0.098800
     11 C3         -13.2820     0.3440   -11.1040 ca         1 O7W      -0.073300
     12 C6         -15.6390     1.8940   -10.9050 ca         1 O7W      -0.110300
     13 C20        -24.4360    -0.8720   -10.2210 cd         1 O7W      -0.136400
     14 C23        -26.2060    -1.6560    -9.0770 ca         1 O7W      -0.044200
     15 C17        -23.0530     1.5940   -12.8660 cc         1 O7W       0.424300
     16 C14        -21.3870     2.2570   -13.9610 cc         1 O7W       0.437300
     17 C10        -18.4450     2.4480   -12.7840 c          1 O7W       0.606100
     18 C1         -11.5990    -1.0880    -9.8490 c3         1 O7W      -0.087100
     19 C9         -16.7530     4.3340   -12.7480 c3         1 O7W       0.088300
     20 C19        -23.4690     0.0850   -10.8700 c3         1 O7W       0.003800
     21 C7         -16.9100     2.7280   -10.8040 c3         1 O7W       0.142300
     22 C18        -24.0030     0.6340   -12.2100 c3         1 O7W      -0.099700
     23 C13        -20.1280     2.1830   -14.7840 c3         1 O7W      -0.082700
     24 C12        -18.9240     2.9450   -14.1650 c3         1 O7W      -0.154400
     25 N16        -23.1000     2.9160   -12.8340 nd         1 O7W      -0.364000
     26 N15        -22.0150     3.3490   -13.5520 nd         1 O7W      -0.375000
     27 N22        -25.4430    -2.7250    -9.5090 na         1 O7W      -0.224700
     28 N8         -17.4180     3.1660   -12.1250 n          1 O7W      -0.405800
     29 O11        -18.9420     1.4540   -12.2710 o          1 O7W      -0.606100
     30 O29        -21.9990     1.1130   -13.5690 os         1 O7W      -0.281000
     31 H1         -27.8330     1.7460    -8.2030 ha         1 O7W       0.111000
     32 H2         -28.9020    -0.3810    -7.4430 ha         1 O7W       0.109000
     33 H3         -25.7020     1.6820    -9.5340 ha         1 O7W       0.117000
     34 H4         -14.6170    -1.3170   -11.5030 ha         1 O7W       0.111500
     35 H5         -12.2380     2.1940   -10.6740 ha         1 O7W       0.111500
     36 H6         -16.6830     0.0420   -11.3320 ha         1 O7W       0.114000
     37 H7         -14.3010     3.5540   -10.5020 ha         1 O7W       0.114000
     38 H8         -27.8500    -2.5920    -8.0070 ha         1 O7W       0.112000
     39 H9         -23.5770    -2.9150   -10.6690 h4         1 O7W       0.209000
     40 H10        -10.6840    -1.6840    -9.9550 hc         1 O7W       0.035367
     41 H11        -11.4090    -0.2920    -9.1190 hc         1 O7W       0.035367
     42 H12        -12.3890    -1.7390    -9.4560 hc         1 O7W       0.035367
     43 H13        -15.9510     4.7090   -12.1010 h1         1 O7W       0.040700
     44 H14        -16.3150     4.0450   -13.7120 h1         1 O7W       0.040700
     45 H15        -17.4810     5.1410   -12.9040 h1         1 O7W       0.040700
     46 H16        -12.1530    -1.3080   -11.9270 hc         1 O7W       0.044700
     47 H17        -11.1880     0.1180   -11.5950 hc         1 O7W       0.044700
     48 H18        -22.5070    -0.4130   -11.0430 hc         1 O7W       0.065700
     49 H19        -23.2640     0.9230   -10.1920 hc         1 O7W       0.065700
     50 H20        -16.7130     3.6160   -10.1890 h1         1 O7W       0.069700
     51 H21        -17.6800     2.1530   -10.2740 h1         1 O7W       0.069700
     52 H22        -24.9650     1.1300   -12.0420 hc         1 O7W       0.066700
     53 H23        -24.1980    -0.2030   -12.8890 hc         1 O7W       0.066700
     54 H24        -20.3350     2.5920   -15.7800 hc         1 O7W       0.073700
     55 H25        -19.8510     1.1330   -14.9350 hc         1 O7W       0.073700
     56 H26        -18.0600     2.9320   -14.8390 hc         1 O7W       0.073700
     57 H27        -19.1250     4.0200   -14.0960 hc         1 O7W       0.073700
     58 H28        -25.6610    -3.7010    -9.3290 hn         1 O7W       0.349000
     59 C2         -12.0130    -0.4920   -11.2070 c3         1 O7W      -0.032100
@<TRIPOS>BOND
     1     1     2 ar  
     2     1     3 ar  
     3     1    31 1   
     4     2     8 ar  
     5     2    32 1   
     6     3    10 ar  
     7     3    33 1   
     8     4     6 ar  
     9     4    11 ar  
    10     4    34 1   
    11     5     7 ar  
    12     5    11 ar  
    13     5    35 1   
    14     6    12 ar  
    15     6    36 1   
    16     7    12 ar  
    17     7    37 1   
    18     8    14 ar  
    19     8    38 1   
    20     9    13 2   
    21     9    27 1   
    22     9    39 1   
    23    10    13 1   
    24    10    14 ar  
    25    11    59 1   
    26    12    21 1   
    27    13    20 1   
    28    14    27 1   
    29    15    22 1   
    30    15    25 2   
    31    15    30 1   
    32    16    23 1   
    33    16    26 2   
    34    16    30 1   
    35    17    24 1   
    36    17    28 1   
    37    17    29 2   
    38    18    40 1   
    39    18    41 1   
    40    18    42 1   
    41    18    59 1   
    42    19    28 1   
    43    19    43 1   
    44    19    44 1   
    45    19    45 1   
    46    20    22 1   
    47    20    48 1   
    48    20    49 1   
    49    21    28 1   
    50    21    50 1   
    51    21    51 1   
    52    22    52 1   
    53    22    53 1   
    54    23    24 1   
    55    23    54 1   
    56    23    55 1   
    57    24    56 1   
    58    24    57 1   
    59    25    26 1   
    60    27    58 1   
    61    46    59 1   
    62    47    59 1   
@<TRIPOS>SUBSTRUCTURE
     1 O7W         1 TEMP              0 ****  ****    0 ROOT
