@<TRIPOS>MOLECULE
O7W
   59    62     1     0     0
SMALL
abcg2


@<TRIPOS>ATOM
      1 C26        -27.6650     0.8060    -7.5720 ca         1 O7W      -0.143000
      2 C25        -28.3980    -0.3790    -7.3930 ca         1 O7W      -0.090000
      3 C27        -26.7050     0.9070    -8.5600 ca         1 O7W      -0.057000
      4 C4         -13.5490     0.4800   -12.0040 ca         1 O7W      -0.109500
      5 C31        -12.9720     1.9240   -10.1940 ca         1 O7W      -0.109500
      6 C5         -14.8550     0.9420   -11.9610 ca         1 O7W      -0.097500
      7 C30        -14.2790     2.3920   -10.1530 ca         1 O7W      -0.097500
      8 C24        -28.1860    -1.4840    -8.1950 ca         1 O7W      -0.131000
      9 C21        -25.8090    -1.7180   -10.8870 cc         1 O7W      -0.166100
     10 C28        -26.4690    -0.1960    -9.3890 ca         1 O7W      -0.098800
     11 C3         -12.5830     0.9620   -11.1210 ca         1 O7W      -0.073300
     12 C6         -15.2390     1.9050   -11.0320 ca         1 O7W      -0.110300
     13 C20        -25.5720    -0.4350   -10.4800 cd         1 O7W      -0.136400
     14 C23        -27.2170    -1.3770    -9.1930 ca         1 O7W      -0.044200
     15 C17        -22.7200     0.9650   -12.6170 cc         1 O7W       0.424300
     16 C14        -21.0490     1.6710   -13.7050 cc         1 O7W       0.437300
     17 C10        -18.2210     2.0300   -12.7940 c          1 O7W       0.606100
     18 C1         -11.0180    -0.8050   -10.2580 c3         1 O7W      -0.087100
     19 C9         -16.6100     3.8780   -12.9480 c3         1 O7W       0.088300
     20 C19        -24.5900     0.5530   -11.0180 c3         1 O7W       0.003800
     21 C7         -16.6620     2.4040   -10.9640 c3         1 O7W       0.142300
     22 C18        -23.7160    -0.0170   -12.1280 c3         1 O7W      -0.099700
     23 C13        -19.8890     1.6250   -14.6290 c3         1 O7W      -0.082700
     24 C12        -18.7420     2.4970   -14.1400 c3         1 O7W      -0.154400
     25 N16        -22.5920     2.2100   -12.3330 nd         1 O7W      -0.364000
     26 N15        -21.5080     2.6700   -13.0440 nd         1 O7W      -0.375000
     27 N22        -26.7920    -2.2820   -10.1190 na         1 O7W      -0.224700
     28 N8         -17.2040     2.7430   -12.2660 n          1 O7W      -0.405800
     29 O11        -18.7150     1.0580   -12.2350 o          1 O7W      -0.606100
     30 O29        -21.7750     0.5630   -13.4870 os         1 O7W      -0.281000
     31 H1         -27.8590     1.6510    -6.9230 ha         1 O7W       0.111000
     32 H2         -29.1440    -0.4280    -6.6100 ha         1 O7W       0.109000
     33 H3         -26.1440     1.8250    -8.6880 ha         1 O7W       0.117000
     34 H4         -13.2730    -0.2660   -12.7410 ha         1 O7W       0.111500
     35 H5         -12.2410     2.3250    -9.5000 ha         1 O7W       0.111500
     36 H6         -15.5790     0.5480   -12.6660 ha         1 O7W       0.114000
     37 H7         -14.5510     3.1500    -9.4280 ha         1 O7W       0.114000
     38 H8         -28.7500    -2.3970    -8.0540 ha         1 O7W       0.112000
     39 H9         -25.3470    -2.2910   -11.6770 h4         1 O7W       0.209000
     40 H10         -9.9920    -1.1760   -10.2860 hc         1 O7W       0.035367
     41 H11        -11.2630    -0.5770    -9.2200 hc         1 O7W       0.035367
     42 H12        -11.6740    -1.6130   -10.5850 hc         1 O7W       0.035367
     43 H13        -15.7870     4.2540   -12.3460 h1         1 O7W       0.040700
     44 H14        -16.2020     3.6060   -13.9220 h1         1 O7W       0.040700
     45 H15        -17.3220     4.6930   -13.0830 h1         1 O7W       0.040700
     46 H16        -10.8970     0.1760   -12.1690 hc         1 O7W       0.044700
     47 H17        -10.4840     1.2040   -10.8130 hc         1 O7W       0.044700
     48 H18        -23.9530     0.9120   -10.2050 hc         1 O7W       0.065700
     49 H19        -25.1210     1.4340   -11.3880 hc         1 O7W       0.065700
     50 H20        -16.7080     3.2860   -10.3190 h1         1 O7W       0.069700
     51 H21        -17.3030     1.6490   -10.5120 h1         1 O7W       0.069700
     52 H22        -24.3320    -0.3440   -12.9720 hc         1 O7W       0.066700
     53 H23        -23.1870    -0.9060   -11.7750 hc         1 O7W       0.066700
     54 H24        -20.2040     1.9730   -15.6160 hc         1 O7W       0.073700
     55 H25        -19.5650     0.5920   -14.7500 hc         1 O7W       0.073700
     56 H26        -17.9390     2.4760   -14.8800 hc         1 O7W       0.073700
     57 H27        -19.0620     3.5400   -14.0760 hc         1 O7W       0.073700
     58 H28        -27.1430    -3.2190   -10.2290 hn         1 O7W       0.349000
     59 C2         -11.1780     0.4290   -11.1440 c3         1 O7W      -0.032100
@<TRIPOS>BOND
     1     1     2 ar  
     2     1     3 ar  
     3     1    31 1   
     4     2     8 ar  
     5     2    32 1   
     6     3    10 ar  
     7     3    33 1   
     8     4     6 ar  
     9     4    11 ar  
    10     4    34 1   
    11     5     7 ar  
    12     5    11 ar  
    13     5    35 1   
    14     6    12 ar  
    15     6    36 1   
    16     7    12 ar  
    17     7    37 1   
    18     8    14 ar  
    19     8    38 1   
    20     9    13 2   
    21     9    27 1   
    22     9    39 1   
    23    10    13 1   
    24    10    14 ar  
    25    11    59 1   
    26    12    21 1   
    27    13    20 1   
    28    14    27 1   
    29    15    22 1   
    30    15    25 2   
    31    15    30 1   
    32    16    23 1   
    33    16    26 2   
    34    16    30 1   
    35    17    24 1   
    36    17    28 1   
    37    17    29 2   
    38    18    40 1   
    39    18    41 1   
    40    18    42 1   
    41    18    59 1   
    42    19    28 1   
    43    19    43 1   
    44    19    44 1   
    45    19    45 1   
    46    20    22 1   
    47    20    48 1   
    48    20    49 1   
    49    21    28 1   
    50    21    50 1   
    51    21    51 1   
    52    22    52 1   
    53    22    53 1   
    54    23    24 1   
    55    23    54 1   
    56    23    55 1   
    57    24    56 1   
    58    24    57 1   
    59    25    26 1   
    60    27    58 1   
    61    46    59 1   
    62    47    59 1   
@<TRIPOS>SUBSTRUCTURE
     1 O7W         1 TEMP              0 ****  ****    0 ROOT
