@<TRIPOS>MOLECULE
O7X
   58    61     1     0     0
SMALL
abcg2


@<TRIPOS>ATOM
      1 C1          23.5400   -41.2170    31.3520 ca         1 O7X      -0.094000
      2 C2          23.8080   -41.0260    30.0090 ca         1 O7X      -0.091000
      3 C3          23.2280   -41.8370    29.0410 ca         1 O7X      -0.053000
      4 C4          22.3740   -42.8410    29.4650 ca         1 O7X      -0.216500
      5 C5          19.9970   -43.1370    28.0540 ca         1 O7X      -0.255500
      6 C6          19.8860   -41.9830    27.2850 ca         1 O7X      -0.018000
      7 C10         13.6320   -39.1720    28.4090 ca         1 O7X      -0.281500
      8 C11         12.9070   -38.5440    27.3980 ca         1 O7X      -0.033000
      9 C12         11.5540   -38.7800    27.2510 ca         1 O7X       0.109100
     10 C13         10.9220   -39.6760    28.1250 ca         1 O7X       0.095100
     11 C14         11.6570   -40.3030    29.1180 ca         1 O7X      -0.174000
     12 C22         17.6600   -43.0770    28.5400 ca         1 O7X      -0.111500
     13 C23         18.8940   -43.6960    28.6780 ca         1 O7X      -0.018000
     14 S           21.5940   -43.8830    28.2550 sy         1 O7X       1.018000
     15 O7          22.3280   -43.7430    27.0030 o          1 O7X      -0.526000
     16 C24         22.0910   -43.0620    30.8060 ca         1 O7X      -0.121000
     17 C           22.6770   -42.2370    31.7590 ca         1 O7X       0.128100
     18 O           22.4560   -42.3760    33.0760 oh         1 O7X      -0.530100
     19 C8          17.5310   -41.9100    27.7970 ca         1 O7X      -0.038300
     20 C7          18.6520   -41.3710    27.1700 ca         1 O7X      -0.111500
     21 N           16.2270   -40.1310    28.7320 n7         1 O7X      -0.879300
     22 S1          15.3600   -38.7560    28.5140 sy         1 O7X       1.158600
     23 O1          15.7410   -38.2260    27.2130 o          1 O7X      -0.529500
     24 O6          15.5870   -37.9510    29.7020 o          1 O7X      -0.529500
     25 C15         13.0180   -40.0620    29.2910 cp         1 O7X       0.057000
     26 O3           9.6070   -39.8630    27.9290 oh         1 O7X      -0.548100
     27 O2          10.8840   -38.1510    26.2700 oh         1 O7X      -0.525100
     28 C16         13.7220   -40.7940    30.3720 cp         1 O7X      -0.088000
     29 C21         13.8910   -42.1690    30.2730 ca         1 O7X      -0.103000
     30 C20         14.5370   -42.8700    31.2830 ca         1 O7X      -0.170000
     31 C19         15.0040   -42.2120    32.4090 ca         1 O7X       0.055100
     32 O5          15.6400   -42.8160    33.4350 oh         1 O7X      -0.551100
     33 C18         14.8110   -40.8280    32.5310 ca         1 O7X       0.127100
     34 O4          15.2240   -40.1490    33.6200 oh         1 O7X      -0.519100
     35 C17         14.1770   -40.1330    31.5130 ca         1 O7X      -0.104000
     36 H1          23.9970   -40.5780    32.0970 ha         1 O7X       0.133000
     37 H2          24.4800   -40.2330    29.7090 ha         1 O7X       0.123000
     38 H3          23.4420   -41.6820    27.9940 ha         1 O7X       0.142000
     39 H4          20.7490   -41.5570    26.7890 ha         1 O7X       0.135500
     40 H6          16.0890   -40.7360    26.7440 h1         1 O7X       0.061200
     41 H7          15.3820   -41.8800    27.8830 h1         1 O7X       0.061200
     42 H9          13.3890   -37.8640    26.7090 ha         1 O7X       0.162000
     43 H12         11.1590   -40.9950    29.7880 ha         1 O7X       0.121000
     44 H18         16.7910   -43.5060    29.0250 ha         1 O7X       0.122500
     45 H19         18.9850   -44.5970    29.2690 ha         1 O7X       0.135500
     46 H20         21.4230   -43.8610    31.1090 ha         1 O7X       0.129000
     47 H           21.8420   -43.0990    33.2490 ho         1 O7X       0.469000
     48 H5          18.5580   -40.4650    26.5850 ha         1 O7X       0.122500
     49 H8          16.2160   -40.4610    29.6910 hn         1 O7X       0.494000
     50 H11          9.2390   -40.4910    28.5630 ho         1 O7X       0.483000
     51 H10          9.9540   -38.4060    26.2710 ho         1 O7X       0.485000
     52 H17         13.5360   -42.7010    29.4000 ha         1 O7X       0.122000
     53 H16         14.6770   -43.9420    31.1910 ha         1 O7X       0.118000
     54 H15         15.7040   -43.7680    33.2950 ho         1 O7X       0.479000
     55 H14         15.6310   -40.7470    34.2580 ho         1 O7X       0.484000
     56 H13         14.0270   -39.0680    31.6250 ha         1 O7X       0.162000
     57 C9          16.2140   -41.1880    27.7270 c3         1 O7X       0.252100
     58 O8          21.4100   -45.2080    28.8380 o          1 O7X      -0.526000
@<TRIPOS>BOND
     1     1     2 ar  
     2     1    17 ar  
     3     1    36 1   
     4     2     3 ar  
     5     2    37 1   
     6     3     4 ar  
     7     3    38 1   
     8     4    14 1   
     9     4    16 ar  
    10     5     6 ar  
    11     5    13 ar  
    12     5    14 1   
    13     6    20 ar  
    14     6    39 1   
    15     7     8 ar  
    16     7    22 1   
    17     7    25 ar  
    18     8     9 ar  
    19     8    42 1   
    20     9    10 ar  
    21     9    27 1   
    22    10    11 ar  
    23    10    26 1   
    24    11    25 ar  
    25    11    43 1   
    26    12    13 ar  
    27    12    19 ar  
    28    12    44 1   
    29    13    45 1   
    30    14    15 2   
    31    14    58 2   
    32    16    17 ar  
    33    16    46 1   
    34    17    18 1   
    35    18    47 1   
    36    19    20 ar  
    37    19    57 1   
    38    20    48 1   
    39    21    22 1   
    40    21    49 1   
    41    21    57 1   
    42    22    23 2   
    43    22    24 2   
    44    25    28 1   
    45    26    50 1   
    46    27    51 1   
    47    28    29 ar  
    48    28    35 ar  
    49    29    30 ar  
    50    29    52 1   
    51    30    31 ar  
    52    30    53 1   
    53    31    32 1   
    54    31    33 ar  
    55    32    54 1   
    56    33    34 1   
    57    33    35 ar  
    58    34    55 1   
    59    35    56 1   
    60    40    57 1   
    61    41    57 1   
@<TRIPOS>SUBSTRUCTURE
     1 O7X         1 TEMP              0 ****  ****    0 ROOT
