@<TRIPOS>MOLECULE
O7X
   58    61     1     0     0
SMALL
No Charge or Current Charge


@<TRIPOS>ATOM
      1 C1          20.7220   -43.3630    32.6610 ca         1 O7X      -0.094000
      2 C2          21.5090   -42.3310    32.1210 ca         1 O7X      -0.091000
      3 C3          21.6700   -42.2220    30.7280 ca         1 O7X      -0.053000
      4 C4          21.0470   -43.1520    29.8670 ca         1 O7X      -0.216500
      5 C5          19.7800   -42.0210    27.6210 ca         1 O7X      -0.255500
      6 C6          19.8110   -40.6180    27.7510 ca         1 O7X      -0.018000
      7 C10         13.4040   -39.6680    28.5370 ca         1 O7X      -0.281500
      8 C11         12.2240   -39.8640    27.7860 ca         1 O7X      -0.033000
      9 C12         11.4310   -40.9980    28.0120 ca         1 O7X       0.109100
     10 C13         11.8140   -41.9430    28.9820 ca         1 O7X       0.095100
     11 C14         12.9910   -41.7500    29.7240 ca         1 O7X      -0.174000
     12 C22         17.4490   -41.8930    26.9170 ca         1 O7X      -0.111500
     13 C23         18.5960   -42.6560    27.1950 ca         1 O7X      -0.018000
     14 S           21.2300   -42.9950    28.0700 sy         1 O7X       1.018000
     15 O7          22.4230   -42.1770    27.8060 o          1 O7X      -0.526000
     16 C24         20.2540   -44.1850    30.4180 ca         1 O7X      -0.121000
     17 C           20.0940   -44.2890    31.8110 ca         1 O7X       0.128100
     18 O           19.3310   -45.2850    32.3470 oh         1 O7X      -0.530100
     19 C8          17.4680   -40.4920    27.0700 ca         1 O7X      -0.038300
     20 C7          18.6620   -39.8610    27.4730 ca         1 O7X      -0.111500
     21 N           15.9480   -38.8470    28.0480 n7         1 O7X      -0.879300
     22 S1          14.4250   -38.2040    28.2350 sy         1 O7X       1.158600
     23 O1          14.0680   -37.6070    26.9450 o          1 O7X      -0.529500
     24 O6          14.5080   -37.3880    29.4460 o          1 O7X      -0.529500
     25 C15         13.8100   -40.6110    29.5330 cp         1 O7X       0.057000
     26 O3          11.0400   -43.0530    29.1970 oh         1 O7X      -0.548100
     27 O2          10.2860   -41.1950    27.2910 oh         1 O7X      -0.525100
     28 C16         15.0660   -40.5280    30.3360 cp         1 O7X      -0.088000
     29 C21         16.1270   -41.4290    30.0730 ca         1 O7X      -0.103000
     30 C20         17.3280   -41.3720    30.8000 ca         1 O7X      -0.170000
     31 C19         17.4780   -40.4270    31.8260 ca         1 O7X       0.055100
     32 O5          18.6440   -40.3710    32.5390 oh         1 O7X      -0.551100
     33 C18         16.4190   -39.5460    32.1270 ca         1 O7X       0.127100
     34 O4          16.5670   -38.6420    33.1390 oh         1 O7X      -0.519100
     35 C17         15.2230   -39.5990    31.3930 ca         1 O7X      -0.104000
     36 H1          20.5990   -43.4470    33.7380 ha         1 O7X       0.133000
     37 H2          21.9960   -41.6170    32.7810 ha         1 O7X       0.123000
     38 H3          22.2790   -41.4140    30.3250 ha         1 O7X       0.142000
     39 H4          20.7150   -40.1120    28.0860 ha         1 O7X       0.135500
     40 H6          16.3020   -39.0560    25.9630 h1         1 O7X       0.061200
     41 H7          15.3590   -40.3700    26.6850 h1         1 O7X       0.061200
     42 H9          11.9170   -39.1430    27.0300 ha         1 O7X       0.162000
     43 H12         13.2880   -42.4880    30.4660 ha         1 O7X       0.121000
     44 H18         16.5370   -42.3980    26.6080 ha         1 O7X       0.122500
     45 H19         18.5510   -43.7390    27.0970 ha         1 O7X       0.135500
     46 H20         19.7620   -44.9000    29.7610 ha         1 O7X       0.129000
     47 H           18.9840   -45.8430    31.6180 ho         1 O7X       0.469000
     48 H5          18.6900   -38.7810    27.5980 ha         1 O7X       0.122500
     49 H8          15.9730   -39.4640    28.8570 hn         1 O7X       0.494000
     50 H11         11.4540   -43.5950    29.9040 ho         1 O7X       0.483000
     51 H10          9.9010   -42.0410    27.6130 ho         1 O7X       0.485000
     52 H17         16.0130   -42.1760    29.2900 ha         1 O7X       0.122000
     53 H16         18.1310   -42.0660    30.5630 ha         1 O7X       0.118000
     54 H15         19.2530   -41.0620    32.1970 ho         1 O7X       0.479000
     55 H14         17.4700   -38.7890    33.5000 ho         1 O7X       0.484000
     56 H13         14.4130   -38.9180    31.6420 ha         1 O7X       0.162000
     57 C9          16.1950   -39.6780    26.8620 c3         1 O7X       0.252100
     58 O8          21.0790   -44.3330    27.4780 o          1 O7X      -0.526000
@<TRIPOS>BOND
     1     1     2 ar  
     2     1    17 ar  
     3     1    36 1   
     4     2     3 ar  
     5     2    37 1   
     6     3     4 ar  
     7     3    38 1   
     8     4    14 1   
     9     4    16 ar  
    10     5     6 ar  
    11     5    13 ar  
    12     5    14 1   
    13     6    20 ar  
    14     6    39 1   
    15     7     8 ar  
    16     7    22 1   
    17     7    25 ar  
    18     8     9 ar  
    19     8    42 1   
    20     9    10 ar  
    21     9    27 1   
    22    10    11 ar  
    23    10    26 1   
    24    11    25 ar  
    25    11    43 1   
    26    12    13 ar  
    27    12    19 ar  
    28    12    44 1   
    29    13    45 1   
    30    14    15 2   
    31    14    58 2   
    32    16    17 ar  
    33    16    46 1   
    34    17    18 1   
    35    18    47 1   
    36    19    20 ar  
    37    19    57 1   
    38    20    48 1   
    39    21    22 1   
    40    21    49 1   
    41    21    57 1   
    42    22    23 2   
    43    22    24 2   
    44    25    28 1   
    45    26    50 1   
    46    27    51 1   
    47    28    29 ar  
    48    28    35 ar  
    49    29    30 ar  
    50    29    52 1   
    51    30    31 ar  
    52    30    53 1   
    53    31    32 1   
    54    31    33 ar  
    55    32    54 1   
    56    33    34 1   
    57    33    35 ar  
    58    34    55 1   
    59    35    56 1   
    60    40    57 1   
    61    41    57 1   
@<TRIPOS>SUBSTRUCTURE
     1 O7X         1 TEMP              0 ****  ****    0 ROOT
