@<TRIPOS>MOLECULE
O7Z
   40    42     1     0     0
SMALL
No Charge or Current Charge


@<TRIPOS>ATOM
      1 C02         -4.8950    -2.2450    -0.2690 c          1 O7Z       0.731000
      2 C04         -3.4060    -1.9720     0.0830 c3         1 O7Z      -0.005400
      3 O01         -5.5790    -1.3450    -0.7420 o          1 O7Z      -0.701500
      4 O03         -5.3290    -3.3700    -0.0530 o          1 O7Z      -0.701500
      5 O05         -2.9970    -0.6150    -0.2110 os         1 O7Z      -0.261100
      6 H1          -3.2740    -2.1850     1.1510 h1         1 O7Z       0.024700
      7 H2          -2.7960    -2.6830    -0.4880 h1         1 O7Z       0.024700
      8 C1          -1.7120    -0.1590     0.0250 ca         1 O7Z       0.227100
      9 C2          -0.7140    -0.9980     0.5720 ca         1 O7Z      -0.232000
     10 C3           0.5710    -0.4870     0.7890 ca         1 O7Z       0.004700
     11 C4           0.8720     0.8250     0.4770 ca         1 O7Z      -0.262600
     12 C5          -0.1000     1.6840    -0.0700 ca         1 O7Z       0.219000
     13 C6          -1.4020     1.1830    -0.2970 ca         1 O7Z       0.028000
     14 C7           2.2900     1.1370     0.7920 c          1 O7Z       0.608700
     15 C8           2.9430    -0.2410     1.1520 c5         1 O7Z      -0.144000
     16 C9           1.7330    -1.2610     1.3620 c5         1 O7Z      -0.032100
     17 C10          3.8270    -0.6770    -0.1030 c5         1 O7Z      -0.052700
     18 C11          4.5140    -2.0690     0.1220 c5         1 O7Z      -0.077400
     19 C12          4.4460    -2.7620    -1.2780 c5         1 O7Z      -0.079900
     20 C13          4.0380    -1.6240    -2.2550 c5         1 O7Z      -0.079900
     21 C14          2.9880    -0.8740    -1.4040 c5         1 O7Z      -0.077400
     22 C15          3.8010    -0.0830     2.4380 c3         1 O7Z      -0.071100
     23 O1           2.7890     2.2540     0.8540 o          1 O7Z      -0.528100
     24 Cl2          0.2850     3.3560    -0.4960 cl         1 O7Z      -0.171000
     25 Cl1         -2.6520     2.2290    -0.9880 cl         1 O7Z      -0.150000
     26 H4          -0.9180    -2.0330     0.8280 ha         1 O7Z       0.135000
     27 H5           1.5610    -1.4700     2.4240 hc         1 O7Z       0.060200
     28 H6           1.8600    -2.2340     0.8760 hc         1 O7Z       0.060200
     29 H7           4.6000     0.0810    -0.2850 hc         1 O7Z       0.056700
     30 H8           5.5520    -1.9340     0.4480 hc         1 O7Z       0.046450
     31 H9           4.0370    -2.6920     0.8860 hc         1 O7Z       0.046450
     32 H10          5.3990    -3.2250    -1.5590 hc         1 O7Z       0.037200
     33 H11          3.6940    -3.5600    -1.2780 hc         1 O7Z       0.037200
     34 H12          4.8900    -0.9840    -2.5150 hc         1 O7Z       0.037200
     35 H13          3.6200    -2.0100    -3.1920 hc         1 O7Z       0.037200
     36 H14          2.0870    -1.4830    -1.2800 hc         1 O7Z       0.046450
     37 H15          2.6870     0.0750    -1.8620 hc         1 O7Z       0.046450
     38 H16          3.2020     0.3150     3.2660 hc         1 O7Z       0.037700
     39 H17          4.2170    -1.0430     2.7670 hc         1 O7Z       0.037700
     40 H18          4.6400     0.6040     2.2760 hc         1 O7Z       0.037700
@<TRIPOS>BOND
     1     1     2 1   
     2     1     3 1   
     3     1     4 1   
     4     2     5 1   
     5     2     6 1   
     6     2     7 1   
     7     5     8 1   
     8     8     9 ar  
     9     8    13 ar  
    10     9    10 ar  
    11     9    26 1   
    12    10    11 ar  
    13    10    16 1   
    14    11    12 ar  
    15    11    14 1   
    16    12    13 ar  
    17    12    24 1   
    18    13    25 1   
    19    14    15 1   
    20    14    23 2   
    21    15    16 1   
    22    15    17 1   
    23    15    22 1   
    24    16    27 1   
    25    16    28 1   
    26    17    18 1   
    27    17    21 1   
    28    17    29 1   
    29    18    19 1   
    30    18    30 1   
    31    18    31 1   
    32    19    20 1   
    33    19    32 1   
    34    19    33 1   
    35    20    21 1   
    36    20    34 1   
    37    20    35 1   
    38    21    36 1   
    39    21    37 1   
    40    22    38 1   
    41    22    39 1   
    42    22    40 1   
@<TRIPOS>SUBSTRUCTURE
     1 O7Z         1 TEMP              0 ****  ****    0 ROOT
