@<TRIPOS>MOLECULE
O7Z
   40    42     1     0     0
SMALL
bcc


@<TRIPOS>ATOM
      1 C02         -4.9260    -2.0690    -0.2080 c          1 O7Z       0.941600
      2 C04         -3.4520    -1.8570     0.1780 c3         1 O7Z      -0.028600
      3 O01         -5.5270    -1.1430    -0.7670 o          1 O7Z      -0.806800
      4 O03         -5.3510    -3.2000     0.0930 o          1 O7Z      -0.806800
      5 O05         -3.0420    -0.5300    -0.1300 os         1 O7Z      -0.237900
      6 H1          -3.3240    -2.0520     1.2480 h1         1 O7Z       0.024700
      7 H2          -2.8320    -2.5810    -0.3630 h1         1 O7Z       0.024700
      8 C1          -1.7860    -0.1770     0.0890 ca         1 O7Z       0.227100
      9 C2          -0.7980    -1.0190     0.5980 ca         1 O7Z      -0.250000
     10 C3           0.4820    -0.5250     0.7630 ca         1 O7Z       0.004700
     11 C4           0.8050     0.7860     0.4420 ca         1 O7Z      -0.262600
     12 C5          -0.1790     1.6410    -0.0530 ca         1 O7Z       0.127400
     13 C6          -1.4620     1.1630    -0.2300 ca         1 O7Z      -0.063600
     14 C7           2.2310     1.0180     0.6950 c          1 O7Z       0.608700
     15 C8           2.8660    -0.3180     1.0940 c5         1 O7Z      -0.144000
     16 C9           1.6690    -1.2630     1.3040 c5         1 O7Z      -0.032100
     17 C10          3.7660    -0.7510    -0.0820 c5         1 O7Z      -0.052700
     18 C11          4.5190    -2.0730     0.1350 c5         1 O7Z      -0.077400
     19 C12          4.8270    -2.6160    -1.2780 c5         1 O7Z      -0.079900
     20 C13          4.1320    -1.6590    -2.2640 c5         1 O7Z      -0.079900
     21 C14          3.0670    -0.9550    -1.4280 c5         1 O7Z      -0.077400
     22 C15          3.7000    -0.1420     2.3610 c3         1 O7Z      -0.071100
     23 O1           2.8340     2.0610     0.5930 o          1 O7Z      -0.528100
     24 CL2          0.1940     3.2670    -0.4510 cl         1 O7Z      -0.079400
     25 CL1         -2.7070     2.1730    -0.8480 cl         1 O7Z      -0.058400
     26 H4          -1.0190    -2.0430     0.8630 ha         1 O7Z       0.153000
     27 H5           1.5150    -1.4730     2.3660 hc         1 O7Z       0.060200
     28 H6           1.7910    -2.2330     0.8180 hc         1 O7Z       0.060200
     29 H7           4.5100     0.0430    -0.2150 hc         1 O7Z       0.056700
     30 H8           5.4210    -1.9320     0.7300 hc         1 O7Z       0.046450
     31 H9           3.8930    -2.7830     0.6820 hc         1 O7Z       0.046450
     32 H10          5.9000    -2.6710    -1.4670 hc         1 O7Z       0.037200
     33 H11          4.4400    -3.6300    -1.3900 hc         1 O7Z       0.037200
     34 H12          4.8430    -0.9230    -2.6470 hc         1 O7Z       0.037200
     35 H13          3.7150    -2.1760    -3.1280 hc         1 O7Z       0.037200
     36 H14          2.1950    -1.6080    -1.3170 hc         1 O7Z       0.046450
     37 H15          2.7190    -0.0250    -1.8810 hc         1 O7Z       0.046450
     38 H16          3.0990     0.2570     3.1800 hc         1 O7Z       0.037700
     39 H17          4.1090    -1.0980     2.6880 hc         1 O7Z       0.037700
     40 H18          4.5330     0.5410     2.1890 hc         1 O7Z       0.037700
@<TRIPOS>BOND
     1     1     2 1   
     2     1     3 1   
     3     1     4 1   
     4     2     5 1   
     5     2     6 1   
     6     2     7 1   
     7     5     8 1   
     8     8     9 ar  
     9     8    13 ar  
    10     9    10 ar  
    11     9    26 1   
    12    10    11 ar  
    13    10    16 1   
    14    11    12 ar  
    15    11    14 1   
    16    12    13 ar  
    17    12    24 1   
    18    13    25 1   
    19    14    15 1   
    20    14    23 2   
    21    15    16 1   
    22    15    17 1   
    23    15    22 1   
    24    16    27 1   
    25    16    28 1   
    26    17    18 1   
    27    17    21 1   
    28    17    29 1   
    29    18    19 1   
    30    18    30 1   
    31    18    31 1   
    32    19    20 1   
    33    19    32 1   
    34    19    33 1   
    35    20    21 1   
    36    20    34 1   
    37    20    35 1   
    38    21    36 1   
    39    21    37 1   
    40    22    38 1   
    41    22    39 1   
    42    22    40 1   
@<TRIPOS>SUBSTRUCTURE
     1 O7Z         1 TEMP              0 ****  ****    0 ROOT
