@<TRIPOS>MOLECULE
O80
   39    41     1     0     0
SMALL
No Charge or Current Charge


@<TRIPOS>ATOM
      1 C1          -1.7740     1.1740     0.2360 ca         1 O80       0.002800
      2 F1          -1.8450    -2.7630    -0.4660 f          1 O80      -0.110667
      3 N1          -1.4540    -0.0990     0.7380 na         1 O80      -0.108600
      4 C2          -0.5470     1.7950     0.0110 cp         1 O80      -0.075000
      5 F2          -3.4390    -1.3730    -1.0330 f          1 O80      -0.110667
      6 N2           4.7850     0.1150    -0.6080 n3         1 O80      -0.713600
      7 C3           0.5160     0.8660     0.3890 cp         1 O80      -0.082000
      8 F3          -3.8220    -2.9320     0.4510 f          1 O80      -0.110667
      9 C4          -0.0700    -0.3130     0.8410 ca         1 O80       0.002800
     10 C5          -3.0010     1.7940    -0.0290 ca         1 O80      -0.137000
     11 C6          -2.9650     3.1080    -0.5440 ca         1 O80      -0.080000
     12 C7          -1.7260     3.7570    -0.7790 ca         1 O80      -0.141000
     13 C8          -0.5040     3.1050    -0.5030 ca         1 O80      -0.052000
     14 C9           0.6770    -1.4150     1.2750 ca         1 O80      -0.139000
     15 C10          2.0830    -1.2970     1.2450 ca         1 O80      -0.076000
     16 C11          2.7070    -0.1040     0.7890 ca         1 O80      -0.116300
     17 C12          1.9180     0.9900     0.3560 ca         1 O80      -0.028000
     18 C13         -2.4670    -1.0980     1.1380 c3         1 O80       0.019600
     19 C14         -2.8970    -2.0530     0.0030 c3         1 O80       0.276000
     20 C15          4.2280     0.0060     0.7620 c3         1 O80       0.215100
     21 C16          6.2310     0.4320    -0.6020 c3         1 O80       0.148600
     22 C17          4.4710    -1.0540    -1.4610 c3         1 O80       0.148600
     23 H5          -3.9470     1.2890     0.1510 ha         1 O80       0.118000
     24 H6          -3.8960     3.6260    -0.7640 ha         1 O80       0.113000
     25 H7          -1.7170     4.7690    -1.1770 ha         1 O80       0.115000
     26 H8           0.4470     3.6010    -0.6840 ha         1 O80       0.120000
     27 H9           0.1990    -2.3280     1.6200 ha         1 O80       0.118000
     28 H10          2.6940    -2.1350     1.5730 ha         1 O80       0.111000
     29 H12          2.3850     1.9050     0.0000 ha         1 O80       0.131000
     30 H13         -2.0700    -1.6910     1.9700 h1         1 O80       0.090200
     31 H13A        -3.3530    -0.5730     1.5140 h1         1 O80       0.090200
     32 H15          4.6630    -0.8620     1.2750 h1         1 O80       0.036200
     33 H15A         4.5080     0.8930     1.3470 h1         1 O80       0.036200
     34 H16          6.8090    -0.3850    -0.1480 h1         1 O80       0.031700
     35 H16A         6.5990     0.5860    -1.6250 h1         1 O80       0.031700
     36 H16B         6.4250     1.3500    -0.0330 h1         1 O80       0.031700
     37 H17          3.3860    -1.2000    -1.5490 h1         1 O80       0.031700
     38 H17A         4.8690    -0.9130    -2.4750 h1         1 O80       0.031700
     39 H17B         4.9080    -1.9720    -1.0450 h1         1 O80       0.031700
@<TRIPOS>BOND
     1     1     3 1   
     2     1     4 ar  
     3     1    10 ar  
     4     2    19 1   
     5     3     9 1   
     6     3    18 1   
     7     4     7 1   
     8     4    13 ar  
     9     5    19 1   
    10     6    20 1   
    11     6    21 1   
    12     6    22 1   
    13     7     9 ar  
    14     7    17 ar  
    15     8    19 1   
    16     9    14 ar  
    17    10    11 ar  
    18    10    23 1   
    19    11    12 ar  
    20    11    24 1   
    21    12    13 ar  
    22    12    25 1   
    23    13    26 1   
    24    14    15 ar  
    25    14    27 1   
    26    15    16 ar  
    27    15    28 1   
    28    16    17 ar  
    29    16    20 1   
    30    17    29 1   
    31    18    19 1   
    32    18    30 1   
    33    18    31 1   
    34    20    32 1   
    35    20    33 1   
    36    21    34 1   
    37    21    35 1   
    38    21    36 1   
    39    22    37 1   
    40    22    38 1   
    41    22    39 1   
@<TRIPOS>SUBSTRUCTURE
     1 O80         1 TEMP              0 ****  ****    0 ROOT
