@<TRIPOS>MOLECULE
O80
   39    41     1     0     0
SMALL
abcg2


@<TRIPOS>ATOM
      1 C1          -1.7110     1.1290     0.2170 ca         1 O80       0.002800
      2 F1          -1.8580    -2.7000    -0.3780 f          1 O80      -0.110667
      3 N1          -1.4600    -0.1160     0.7570 na         1 O80      -0.108600
      4 C2          -0.4850     1.7540    -0.0780 cp         1 O80      -0.075000
      5 F2          -3.4260    -1.3380    -0.9250 f          1 O80      -0.110667
      6 N2           4.7320     0.1920    -0.5600 n3         1 O80      -0.713600
      7 C3           0.5530     0.8310     0.3070 cp         1 O80      -0.082000
      8 F3          -3.7950    -2.8600     0.5590 f          1 O80      -0.110667
      9 C4          -0.0940    -0.3110     0.8140 ca         1 O80       0.002800
     10 C5          -2.9260     1.7630    -0.0200 ca         1 O80      -0.137000
     11 C6          -2.8880     3.0390    -0.5580 ca         1 O80      -0.080000
     12 C7          -1.6780     3.6720    -0.8620 ca         1 O80      -0.141000
     13 C8          -0.4720     3.0340    -0.6230 ca         1 O80      -0.052000
     14 C9           0.6300    -1.3980     1.2870 ca         1 O80      -0.139000
     15 C10          2.0130    -1.3130     1.2440 ca         1 O80      -0.076000
     16 C11          2.6810    -0.1880     0.7470 ca         1 O80      -0.116300
     17 C12          1.9420     0.8860     0.2710 ca         1 O80      -0.028000
     18 C13         -2.4470    -1.0460     1.2110 c3         1 O80       0.019600
     19 C14         -2.8830    -1.9910     0.1100 c3         1 O80       0.276000
     20 C15          4.1870    -0.1340     0.7440 c3         1 O80       0.215100
     21 C16          6.1490     0.4740    -0.4750 c3         1 O80       0.148600
     22 C17          4.4670    -0.8490    -1.5290 c3         1 O80       0.148600
     23 H5          -3.8750     1.2930     0.2020 ha         1 O80       0.118000
     24 H6          -3.8200     3.5550    -0.7510 ha         1 O80       0.113000
     25 H7          -1.6880     4.6670    -1.2870 ha         1 O80       0.115000
     26 H8           0.4650     3.5250    -0.8530 ha         1 O80       0.120000
     27 H9           0.1500    -2.2870     1.6730 ha         1 O80       0.118000
     28 H10          2.5950    -2.1520     1.6060 ha         1 O80       0.111000
     29 H12          2.4460     1.7580    -0.1280 ha         1 O80       0.131000
     30 H13         -2.0520    -1.6290     2.0440 h1         1 O80       0.090200
     31 H13A        -3.3210    -0.5130     1.5880 h1         1 O80       0.090200
     32 H15          4.5860    -1.0880     1.1300 h1         1 O80       0.036200
     33 H15A         4.5190     0.6390     1.4450 h1         1 O80       0.036200
     34 H16          6.7450    -0.3860    -0.1310 h1         1 O80       0.031700
     35 H16A         6.5290     0.7690    -1.4540 h1         1 O80       0.031700
     36 H16B         6.3270     1.2980     0.2170 h1         1 O80       0.031700
     37 H17          3.3940    -1.0010    -1.6440 h1         1 O80       0.031700
     38 H17A         4.8670    -0.5600    -2.5010 h1         1 O80       0.031700
     39 H17B         4.9160    -1.8170    -1.2540 h1         1 O80       0.031700
@<TRIPOS>BOND
     1     1     3 1   
     2     1     4 ar  
     3     1    10 ar  
     4     2    19 1   
     5     3     9 1   
     6     3    18 1   
     7     4     7 1   
     8     4    13 ar  
     9     5    19 1   
    10     6    20 1   
    11     6    21 1   
    12     6    22 1   
    13     7     9 ar  
    14     7    17 ar  
    15     8    19 1   
    16     9    14 ar  
    17    10    11 ar  
    18    10    23 1   
    19    11    12 ar  
    20    11    24 1   
    21    12    13 ar  
    22    12    25 1   
    23    13    26 1   
    24    14    15 ar  
    25    14    27 1   
    26    15    16 ar  
    27    15    28 1   
    28    16    17 ar  
    29    16    20 1   
    30    17    29 1   
    31    18    19 1   
    32    18    30 1   
    33    18    31 1   
    34    20    32 1   
    35    20    33 1   
    36    21    34 1   
    37    21    35 1   
    38    21    36 1   
    39    22    37 1   
    40    22    38 1   
    41    22    39 1   
@<TRIPOS>SUBSTRUCTURE
     1 O80         1 TEMP              0 ****  ****    0 ROOT
