@<TRIPOS>MOLECULE
O82
   36    38     1     0     0
SMALL
No Charge or Current Charge


@<TRIPOS>ATOM
      1 C1          -1.9530     0.7630     0.2080 ca         1 O82      -0.002200
      2 F1          -3.5700    -3.3740    -0.7250 f          1 O82      -0.266000
      3 N1          -1.5400    -0.5510     0.4820 na         1 O82      -0.104600
      4 C2          -0.7750     1.4990     0.0970 cp         1 O82      -0.081000
      5 N2           4.6280    -0.0450    -0.8600 n7         1 O82      -0.859400
      6 C3           0.3550     0.5960     0.3060 cp         1 O82      -0.088000
      7 C4          -0.1430    -0.6830     0.5420 ca         1 O82       0.002800
      8 C5          -3.2240     1.3300     0.0500 ca         1 O82      -0.145000
      9 C6          -3.2850     2.7130    -0.2300 ca         1 O82      -0.080000
     10 C7          -2.0980     3.4800    -0.3440 ca         1 O82      -0.145000
     11 C8          -0.8290     2.8780    -0.1820 ca         1 O82      -0.051000
     12 C9           0.6830    -1.7900     0.7690 ca         1 O82      -0.148000
     13 C10          2.0770    -1.5710     0.7580 ca         1 O82      -0.075000
     14 C11          2.6110    -0.2750     0.5230 ca         1 O82      -0.127300
     15 C12          1.7440     0.8200     0.2920 ca         1 O82      -0.024000
     16 C13         -2.4660    -1.6960     0.5400 c3         1 O82       0.049600
     17 C14         -2.7140    -2.3290    -0.8400 c3         1 O82       0.157600
     18 C15          4.1170    -0.0590     0.5200 c3         1 O82       0.208100
     19 C16          6.0880     0.1190    -0.9860 c3         1 O82       0.143100
     20 HN2          4.3660    -0.9380    -1.2960 hn         1 O82       0.410000
     21 H5          -4.1300     0.7360     0.1370 ha         1 O82       0.117000
     22 H6          -4.2520     3.1940    -0.3590 ha         1 O82       0.111000
     23 H7          -2.1640     4.5430    -0.5610 ha         1 O82       0.114000
     24 H8           0.0820     3.4650    -0.2730 ha         1 O82       0.118000
     25 H9           0.2730    -2.7810     0.9470 ha         1 O82       0.117000
     26 H10          2.7480    -2.4100     0.9320 ha         1 O82       0.109000
     27 H12          2.1410     1.8150     0.1050 ha         1 O82       0.129000
     28 H13         -2.0530    -2.4540     1.2170 h1         1 O82       0.071200
     29 H13A        -3.4210    -1.3620     0.9630 h1         1 O82       0.071200
     30 H14         -1.7690    -2.6910    -1.2650 h1         1 O82       0.055700
     31 H14A        -3.1500    -1.5880    -1.5220 h1         1 O82       0.055700
     32 H15          4.5980    -0.8600     1.1000 h1         1 O82       0.034200
     33 H15A         4.3450     0.8910     1.0240 h1         1 O82       0.034200
     34 H16          6.3870     0.1230    -2.0430 h1         1 O82       0.029033
     35 H16A         6.4160     1.0660    -0.5360 h1         1 O82       0.029033
     36 H16B         6.6200    -0.7010    -0.4840 h1         1 O82       0.029033
@<TRIPOS>BOND
     1     1     3 1   
     2     1     4 ar  
     3     1     8 ar  
     4     2    17 1   
     5     3     7 1   
     6     3    16 1   
     7     4     6 1   
     8     4    11 ar  
     9     5    18 1   
    10     5    19 1   
    11     5    20 1   
    12     6     7 ar  
    13     6    15 ar  
    14     7    12 ar  
    15     8     9 ar  
    16     8    21 1   
    17     9    10 ar  
    18     9    22 1   
    19    10    11 ar  
    20    10    23 1   
    21    11    24 1   
    22    12    13 ar  
    23    12    25 1   
    24    13    14 ar  
    25    13    26 1   
    26    14    15 ar  
    27    14    18 1   
    28    15    27 1   
    29    16    17 1   
    30    16    28 1   
    31    16    29 1   
    32    17    30 1   
    33    17    31 1   
    34    18    32 1   
    35    18    33 1   
    36    19    34 1   
    37    19    35 1   
    38    19    36 1   
@<TRIPOS>SUBSTRUCTURE
     1 O82         1 TEMP              0 ****  ****    0 ROOT
