@<TRIPOS>MOLECULE
O82
   36    38     1     0     0
SMALL
abcg2


@<TRIPOS>ATOM
      1 C1          -1.8600     0.7120     0.1650 ca         1 O82      -0.002200
      2 F1          -3.7450    -3.2820    -0.5310 f          1 O82      -0.266000
      3 N1          -1.5280    -0.5850     0.4880 na         1 O82      -0.104600
      4 C2          -0.6810     1.4640    -0.0000 cp         1 O82      -0.081000
      5 N2           4.5870     0.2150    -0.8130 n7         1 O82      -0.859400
      6 C3           0.4170     0.5580     0.2250 cp         1 O82      -0.088000
      7 C4          -0.1560    -0.6970     0.5140 ca         1 O82       0.002800
      8 C5          -3.1190     1.2860     0.0130 ca         1 O82      -0.145000
      9 C6          -3.1740     2.6330    -0.3050 ca         1 O82      -0.080000
     10 C7          -2.0120     3.3950    -0.4680 ca         1 O82      -0.145000
     11 C8          -0.7630     2.8170    -0.3170 ca         1 O82      -0.051000
     12 C9           0.6380    -1.8050     0.7850 ca         1 O82      -0.148000
     13 C10          2.0130    -1.6280     0.7640 ca         1 O82      -0.075000
     14 C11          2.6080    -0.3910     0.4840 ca         1 O82      -0.127300
     15 C12          1.7990     0.7030     0.2070 ca         1 O82      -0.024000
     16 C13         -2.4640    -1.6690     0.6350 c3         1 O82       0.049600
     17 C14         -2.8390    -2.2470    -0.7200 c3         1 O82       0.157600
     18 C15          4.1070    -0.2500     0.4740 c3         1 O82       0.208100
     19 C16          6.0280     0.3600    -0.8450 c3         1 O82       0.143100
     20 HN2          4.3040    -0.4470    -1.5260 hn         1 O82       0.410000
     21 H5          -4.0280     0.7110     0.1380 ha         1 O82       0.117000
     22 H6          -4.1400     3.1040    -0.4300 ha         1 O82       0.111000
     23 H7          -2.0940     4.4450    -0.7140 ha         1 O82       0.114000
     24 H8           0.1350     3.4100    -0.4430 ha         1 O82       0.118000
     25 H9           0.2140    -2.7750     1.0050 ha         1 O82       0.117000
     26 H10          2.6500    -2.4800     0.9720 ha         1 O82       0.109000
     27 H12          2.2460     1.6640    -0.0200 ha         1 O82       0.129000
     28 H13         -2.0190    -2.4400     1.2660 h1         1 O82       0.071200
     29 H13A        -3.3550    -1.3090     1.1540 h1         1 O82       0.071200
     30 H14         -1.9610    -2.6420    -1.2330 h1         1 O82       0.055700
     31 H14A        -3.3060    -1.4910    -1.3540 h1         1 O82       0.055700
     32 H15          4.5630    -1.2050     0.7810 h1         1 O82       0.034200
     33 H15A         4.4130     0.4840     1.2270 h1         1 O82       0.034200
     34 H16          6.3480     0.6470    -1.8470 h1         1 O82       0.029033
     35 H16A         6.3360     1.1540    -0.1610 h1         1 O82       0.029033
     36 H16B         6.5800    -0.5470    -0.5620 h1         1 O82       0.029033
@<TRIPOS>BOND
     1     1     3 1   
     2     1     4 ar  
     3     1     8 ar  
     4     2    17 1   
     5     3     7 1   
     6     3    16 1   
     7     4     6 1   
     8     4    11 ar  
     9     5    18 1   
    10     5    19 1   
    11     5    20 1   
    12     6     7 ar  
    13     6    15 ar  
    14     7    12 ar  
    15     8     9 ar  
    16     8    21 1   
    17     9    10 ar  
    18     9    22 1   
    19    10    11 ar  
    20    10    23 1   
    21    11    24 1   
    22    12    13 ar  
    23    12    25 1   
    24    13    14 ar  
    25    13    26 1   
    26    14    15 ar  
    27    14    18 1   
    28    15    27 1   
    29    16    17 1   
    30    16    28 1   
    31    16    29 1   
    32    17    30 1   
    33    17    31 1   
    34    18    32 1   
    35    18    33 1   
    36    19    34 1   
    37    19    35 1   
    38    19    36 1   
@<TRIPOS>SUBSTRUCTURE
     1 O82         1 TEMP              0 ****  ****    0 ROOT
