@<TRIPOS>MOLECULE
O83
   36    38     1     0     0
SMALL
No Charge or Current Charge


@<TRIPOS>ATOM
      1 C1          -1.7630     1.0860     0.1910 ca         1 O83      -0.003200
      2 F1          -1.8740    -2.6150    -1.1580 f          1 O83      -0.118500
      3 N1          -1.4260    -0.2320     0.5400 na         1 O83      -0.105600
      4 C2          -0.5440     1.7450     0.0390 cp         1 O83      -0.076000
      5 F2          -3.8710    -2.8470    -0.3170 f          1 O83      -0.118500
      6 N2           4.7590    -0.1520    -0.8190 n7         1 O83      -0.860400
      7 C3           0.5320     0.7910     0.3010 cp         1 O83      -0.088000
      8 C4          -0.0390    -0.4420     0.6100 ca         1 O83       0.008800
      9 C5          -2.9990     1.7150     0.0010 ca         1 O83      -0.148000
     10 C6          -2.9820     3.0810    -0.3570 ca         1 O83      -0.079000
     11 C7          -1.7520     3.7700    -0.5150 ca         1 O83      -0.144000
     12 C8          -0.5200     3.1070    -0.3190 ca         1 O83      -0.050000
     13 C9           0.7230    -1.5790     0.9010 ca         1 O83      -0.137000
     14 C10          2.1280    -1.4410     0.8800 ca         1 O83      -0.076000
     15 C11          2.7350    -0.1940     0.5720 ca         1 O83      -0.124300
     16 C12          1.9320     0.9340     0.2770 ca         1 O83      -0.027000
     17 C13         -2.4270    -1.2960     0.7430 c3         1 O83       0.025600
     18 C14         -2.8950    -1.9460    -0.5740 c3         1 O83       0.150300
     19 C15          4.2510    -0.0650     0.5600 c3         1 O83       0.208100
     20 C16          6.2270    -0.0780    -0.9510 c3         1 O83       0.144100
     21 HN2          4.4460    -1.0500    -1.2080 hn         1 O83       0.412000
     22 H5          -3.9370     1.1790     0.1230 ha         1 O83       0.113000
     23 H6          -3.9200     3.6090    -0.5130 ha         1 O83       0.112000
     24 H7          -1.7580     4.8220    -0.7910 ha         1 O83       0.115000
     25 H8           0.4230     3.6330    -0.4420 ha         1 O83       0.120000
     26 H9           0.2580    -2.5330     1.1340 ha         1 O83       0.120000
     27 H10          2.7500    -2.3060     1.1030 ha         1 O83       0.110000
     28 H12          2.3850     1.8920     0.0330 ha         1 O83       0.131000
     29 H13         -2.0090    -2.0670     1.4010 h1         1 O83       0.081200
     30 H13A        -3.2940    -0.8650     1.2570 h1         1 O83       0.081200
     31 H14         -3.2770    -1.1870    -1.2660 h2         1 O83       0.070700
     32 H15          4.6860    -0.8600     1.1810 h1         1 O83       0.034200
     33 H15A         4.5330     0.8950     1.0130 h1         1 O83       0.034200
     34 H16          6.5230    -0.1460    -2.0070 h1         1 O83       0.029033
     35 H16A         6.6080     0.8720    -0.5510 h1         1 O83       0.029033
     36 H16B         6.7120    -0.9000    -0.4070 h1         1 O83       0.029033
@<TRIPOS>BOND
     1     1     3 1   
     2     1     4 ar  
     3     1     9 ar  
     4     2    18 1   
     5     3     8 1   
     6     3    17 1   
     7     4     7 1   
     8     4    12 ar  
     9     5    18 1   
    10     6    19 1   
    11     6    20 1   
    12     6    21 1   
    13     7     8 ar  
    14     7    16 ar  
    15     8    13 ar  
    16     9    10 ar  
    17     9    22 1   
    18    10    11 ar  
    19    10    23 1   
    20    11    12 ar  
    21    11    24 1   
    22    12    25 1   
    23    13    14 ar  
    24    13    26 1   
    25    14    15 ar  
    26    14    27 1   
    27    15    16 ar  
    28    15    19 1   
    29    16    28 1   
    30    17    18 1   
    31    17    29 1   
    32    17    30 1   
    33    18    31 1   
    34    19    32 1   
    35    19    33 1   
    36    20    34 1   
    37    20    35 1   
    38    20    36 1   
@<TRIPOS>SUBSTRUCTURE
     1 O83         1 TEMP              0 ****  ****    0 ROOT
