@<TRIPOS>MOLECULE
O83
   36    38     1     0     0
SMALL
abcg2


@<TRIPOS>ATOM
      1 C1          -1.6840     1.0540     0.1550 ca         1 O83      -0.003200
      2 F1          -1.8920    -2.5770    -0.9950 f          1 O83      -0.118500
      3 N1          -1.4420    -0.2430     0.5530 na         1 O83      -0.105600
      4 C2          -0.4550     1.7010    -0.0780 cp         1 O83      -0.076000
      5 F2          -3.8530    -2.8610    -0.0630 f          1 O83      -0.118500
      6 N2           4.7210     0.1670    -0.7720 n7         1 O83      -0.860400
      7 C3           0.5770     0.7310     0.1940 cp         1 O83      -0.088000
      8 C4          -0.0800    -0.4560     0.5710 ca         1 O83       0.008800
      9 C5          -2.8980     1.7130    -0.0120 ca         1 O83      -0.148000
     10 C6          -2.8580     3.0380    -0.4140 ca         1 O83      -0.079000
     11 C7          -1.6450     3.6960    -0.6470 ca         1 O83      -0.144000
     12 C8          -0.4400     3.0330    -0.4800 ca         1 O83      -0.050000
     13 C9           0.6370    -1.5970     0.9090 ca         1 O83      -0.137000
     14 C10          2.0200    -1.5200     0.8700 ca         1 O83      -0.076000
     15 C11          2.6980    -0.3500     0.5040 ca         1 O83      -0.124300
     16 C12          1.9660     0.7770     0.1560 ca         1 O83      -0.027000
     17 C13         -2.4490    -1.2200     0.8510 c3         1 O83       0.025600
     18 C14         -2.9280    -1.9220    -0.4030 c3         1 O83       0.150300
     19 C15          4.2040    -0.3160     0.4940 c3         1 O83       0.208100
     20 C16          6.1680     0.2210    -0.7910 c3         1 O83       0.144100
     21 HN2          4.4000    -0.4450    -1.5110 hn         1 O83       0.412000
     22 H5          -3.8470     1.2210     0.1620 ha         1 O83       0.113000
     23 H6          -3.7880     3.5740    -0.5530 ha         1 O83       0.112000
     24 H7          -1.6510     4.7310    -0.9600 ha         1 O83       0.115000
     25 H8           0.4970     3.5450    -0.6610 ha         1 O83       0.120000
     26 H9           0.1480    -2.5190     1.1930 ha         1 O83       0.120000
     27 H10          2.5970    -2.3990     1.1310 ha         1 O83       0.110000
     28 H12          2.4770     1.6860    -0.1390 ha         1 O83       0.131000
     29 H13         -2.0510    -1.9540     1.5540 h1         1 O83       0.081200
     30 H13A        -3.2970    -0.7380     1.3380 h1         1 O83       0.081200
     31 H14         -3.3700    -1.2480    -1.1380 h2         1 O83       0.070700
     32 H15          4.5880    -1.3130     0.7620 h1         1 O83       0.034200
     33 H15A         4.5620     0.3600     1.2780 h1         1 O83       0.034200
     34 H16          6.5140     0.5320    -1.7770 h1         1 O83       0.029033
     35 H16A         6.5210     0.9600    -0.0690 h1         1 O83       0.029033
     36 H16B         6.6590    -0.7320    -0.5480 h1         1 O83       0.029033
@<TRIPOS>BOND
     1     1     3 1   
     2     1     4 ar  
     3     1     9 ar  
     4     2    18 1   
     5     3     8 1   
     6     3    17 1   
     7     4     7 1   
     8     4    12 ar  
     9     5    18 1   
    10     6    19 1   
    11     6    20 1   
    12     6    21 1   
    13     7     8 ar  
    14     7    16 ar  
    15     8    13 ar  
    16     9    10 ar  
    17     9    22 1   
    18    10    11 ar  
    19    10    23 1   
    20    11    12 ar  
    21    11    24 1   
    22    12    25 1   
    23    13    14 ar  
    24    13    26 1   
    25    14    15 ar  
    26    14    27 1   
    27    15    16 ar  
    28    15    19 1   
    29    16    28 1   
    30    17    18 1   
    31    17    29 1   
    32    17    30 1   
    33    18    31 1   
    34    19    32 1   
    35    19    33 1   
    36    20    34 1   
    37    20    35 1   
    38    20    36 1   
@<TRIPOS>SUBSTRUCTURE
     1 O83         1 TEMP              0 ****  ****    0 ROOT
