@<TRIPOS>MOLECULE
O84
   52    55     1     0     0
SMALL
abcg2


@<TRIPOS>ATOM
      1 OP2         -5.6450     1.9560    -1.3770 o          1 O84      -0.907833
      2 P           -4.9710     1.9990    -0.0060 p5         1 O84       1.286500
      3 OP1         -4.3530     3.3490     0.3510 o          1 O84      -0.907833
      4 OP3         -5.7750     1.3460     1.1160 o          1 O84      -0.907833
      5 CAB         -3.4560     0.8520    -0.1960 c6         1 O84       0.194300
      6 C2          -2.6810     0.8450     1.0980 ca         1 O84      -0.069300
      7 CAA         -1.6720     1.7750     1.3360 ca         1 O84      -0.067000
      8 C9          -1.0120     1.8210     2.5570 ca         1 O84      -0.138500
      9 C10         -1.3700     0.9520     3.5790 ca         1 O84      -0.150000
     10 C11         -2.3930     0.0380     3.3630 ca         1 O84      -0.138500
     11 C12         -3.0460    -0.0080     2.1400 ca         1 O84      -0.067000
     12 O3          -3.9710    -0.4300    -0.5100 os         1 O84      -0.406000
     13 O7          -2.6960     1.3600    -1.2620 os         1 O84      -0.399000
     14 C5          -1.6250     0.5370    -1.6630 c6         1 O84       0.120600
     15 C4          -2.2000    -0.7680    -2.1870 c5         1 O84       0.093300
     16 O4          -1.2070    -1.7650    -2.3920 os         1 O84      -0.481000
     17 C3          -3.1390    -1.3650    -1.1420 c5         1 O84       0.157300
     18 C7          -2.1580    -2.1620    -0.2730 c5         1 O84      -0.161400
     19 C1          -1.1510    -2.6520    -1.3100 c5         1 O84       0.349700
     20 N9           0.2350    -2.7020    -0.7920 n          1 O84      -0.306000
     21 C14          1.1950    -1.8160    -1.1760 cc         1 O84      -0.095400
     22 C8           0.5150    -3.7050     0.1000 c          1 O84       0.604000
     23 O2          -0.3110    -4.5230     0.4590 o          1 O84      -0.641000
     24 N1           1.8030    -3.7090     0.5590 ns         1 O84      -0.475500
     25 C6           2.8370    -2.8430     0.2390 c          1 O84       0.582200
     26 O6           3.9260    -2.9960     0.7610 o          1 O84      -0.541000
     27 C13          2.4740    -1.8180    -0.7250 cd         1 O84      -0.124200
     28 C17          3.4030    -0.8200    -1.2460 cf         1 O84      -0.334000
     29 C18          4.7110    -0.6610    -1.0060 c2         1 O84      -0.014200
     30 C19          5.5400     0.4120    -1.6010 c3         1 O84      -0.359200
     31 P2           6.2560     1.5860    -0.3160 p5         1 O84       1.289500
     32 O11          7.0770     0.6800     0.6100 o          1 O84      -0.924833
     33 O9           7.1060     2.5580    -1.1450 o          1 O84      -0.924833
     34 O10          5.0490     2.2390     0.3600 o          1 O84      -0.924833
     35 H3          -1.3890     2.4700     0.5570 ha         1 O84       0.126500
     36 H4          -0.2200     2.5440     2.7090 ha         1 O84       0.079500
     37 H5          -0.8590     0.9890     4.5330 ha         1 O84       0.067000
     38 H6          -2.6890    -0.6400     4.1540 ha         1 O84       0.079500
     39 H7          -3.8390    -0.7270     1.9900 ha         1 O84       0.126500
     40 H8          -1.0750     1.0670    -2.4430 h1         1 O84       0.043200
     41 H9          -0.9230     0.3570    -0.8370 h1         1 O84       0.043200
     42 H10         -2.7000    -0.5970    -3.1430 h1         1 O84       0.075700
     43 H11         -3.8150    -2.0720    -1.6330 h1         1 O84       0.036700
     44 H12         -1.6670    -1.5310     0.4670 hc         1 O84       0.077200
     45 H13         -2.6350    -2.9850     0.2530 hc         1 O84       0.077200
     46 H14         -1.3860    -3.6590    -1.6610 h2         1 O84       0.048700
     47 H15          0.8860    -1.0850    -1.9070 h4         1 O84       0.226000
     48 H16          2.0230    -4.4430     1.2210 hn         1 O84       0.304500
     49 H17          2.9360    -0.1250    -1.9410 ha         1 O84       0.160000
     50 H18          5.2200    -1.3270    -0.3210 ha         1 O84       0.175000
     51 H19          6.3910    -0.0360    -2.1270 hc         1 O84       0.022200
     52 H20          4.9650     0.9750    -2.3440 hc         1 O84       0.022200
@<TRIPOS>BOND
     1     1     2 1   
     2     2     3 1   
     3     2     4 1   
     4     2     5 1   
     5     5     6 1   
     6     5    12 1   
     7     5    13 1   
     8     6     7 ar  
     9     6    11 ar  
    10     7     8 ar  
    11     7    35 1   
    12     8     9 ar  
    13     8    36 1   
    14     9    10 ar  
    15     9    37 1   
    16    10    11 ar  
    17    10    38 1   
    18    11    39 1   
    19    12    17 1   
    20    13    14 1   
    21    14    15 1   
    22    14    40 1   
    23    14    41 1   
    24    15    16 1   
    25    15    17 1   
    26    15    42 1   
    27    16    19 1   
    28    17    18 1   
    29    17    43 1   
    30    18    19 1   
    31    18    44 1   
    32    18    45 1   
    33    19    20 1   
    34    19    46 1   
    35    20    21 1   
    36    20    22 1   
    37    21    27 2   
    38    21    47 1   
    39    22    23 2   
    40    22    24 1   
    41    24    25 1   
    42    24    48 1   
    43    25    26 2   
    44    25    27 1   
    45    27    28 1   
    46    28    29 2   
    47    28    49 1   
    48    29    30 1   
    49    29    50 1   
    50    30    31 1   
    51    30    51 1   
    52    30    52 1   
    53    31    32 1   
    54    31    33 1   
    55    31    34 1   
@<TRIPOS>SUBSTRUCTURE
     1 O84         1 TEMP              0 ****  ****    0 ROOT
