@<TRIPOS>MOLECULE
O84
   52    55     1     0     0
SMALL
No Charge or Current Charge


@<TRIPOS>ATOM
      1 OP2         -6.4300     1.6350    -0.2510 o          1 O84      -0.907833
      2 P           -5.1670     1.8590     0.5240 p5         1 O84       1.286500
      3 OP1         -4.8280     3.3160     0.4340 o          1 O84      -0.907833
      4 OP3         -5.4500     1.5330     1.9590 o          1 O84      -0.907833
      5 CAB         -3.7210     0.7560    -0.1820 c6         1 O84       0.194300
      6 C2          -2.4690     1.1320     0.6570 ca         1 O84      -0.069300
      7 CAA         -1.5310     2.0870     0.1990 ca         1 O84      -0.067000
      8 C9          -0.4070     2.4170     0.9760 ca         1 O84      -0.138500
      9 C10         -0.2140     1.8150     2.2280 ca         1 O84      -0.150000
     10 C11         -1.1530     0.8930     2.7110 ca         1 O84      -0.138500
     11 C12         -2.2780     0.5610     1.9360 ca         1 O84      -0.067000
     12 O3          -4.0440    -0.6720    -0.0450 os         1 O84      -0.406000
     13 O7          -3.5220     1.0380    -1.6030 os         1 O84      -0.399000
     14 C5          -2.5430     0.2360    -2.2940 c6         1 O84       0.120600
     15 C4          -2.8500    -1.2730    -2.1720 c5         1 O84       0.093300
     16 O4          -1.6130    -2.0020    -2.4150 os         1 O84      -0.481000
     17 C3          -3.2870    -1.7150    -0.7370 c5         1 O84       0.157300
     18 C7          -1.9200    -2.0000    -0.0660 c5         1 O84      -0.161400
     19 C1          -1.3040    -2.7830    -1.2430 c5         1 O84       0.349700
     20 N9           0.1640    -2.9010    -1.0440 n          1 O84      -0.306000
     21 C14          0.9720    -1.7550    -1.0290 cc         1 O84      -0.095400
     22 C8           0.6980    -4.1780    -0.7950 c          1 O84       0.604000
     23 O2           0.0330    -5.2010    -0.7680 o          1 O84      -0.641000
     24 N1           2.0370    -4.2280    -0.5750 ns         1 O84      -0.475500
     25 C6           2.9320    -3.2000    -0.5490 c          1 O84       0.582200
     26 O6           4.1190    -3.4200    -0.3570 o          1 O84      -0.541000
     27 C13          2.3270    -1.8450    -0.7830 cd         1 O84      -0.124200
     28 C17          3.1570    -0.6260    -0.7970 cf         1 O84      -0.334000
     29 C18          4.2060    -0.3900     0.0240 c2         1 O84      -0.014200
     30 C19          5.0060     0.8960     0.0310 c3         1 O84      -0.359200
     31 P2           6.4770     0.8700     1.1420 p5         1 O84       1.289500
     32 O11          7.4220    -0.1770     0.6580 o          1 O84      -0.924833
     33 O9           7.1240     2.2120     1.0960 o          1 O84      -0.924833
     34 O10          6.0230     0.5610     2.5280 o          1 O84      -0.924833
     35 H3          -1.6700     2.5800    -0.7610 ha         1 O84       0.126500
     36 H4           0.3120     3.1440     0.6060 ha         1 O84       0.079500
     37 H5           0.6560     2.0720     2.8280 ha         1 O84       0.067000
     38 H6          -1.0130     0.4340     3.6860 ha         1 O84       0.079500
     39 H7          -3.0000    -0.1540     2.3250 ha         1 O84       0.126500
     40 H8          -2.5280     0.5290    -3.3520 h1         1 O84       0.043200
     41 H9          -1.5480     0.4480    -1.8780 h1         1 O84       0.043200
     42 H10         -3.6010    -1.5540    -2.9230 h1         1 O84       0.075700
     43 H11         -3.9000    -2.6260    -0.7740 h1         1 O84       0.036700
     44 H12         -1.3410    -1.1060     0.1650 hc         1 O84       0.077200
     45 H13         -2.0080    -2.6050     0.8420 hc         1 O84       0.077200
     46 H14         -1.7490    -3.7810    -1.3330 h2         1 O84       0.048700
     47 H15          0.4350    -0.8360    -1.2400 h4         1 O84       0.226000
     48 H16          2.4180    -5.1450    -0.4100 hn         1 O84       0.304500
     49 H17          2.8330     0.1680    -1.4730 ha         1 O84       0.160000
     50 H18          4.5230    -1.1410     0.7530 ha         1 O84       0.175000
     51 H19          5.3640     1.1270    -0.9780 hc         1 O84       0.022200
     52 H20          4.3730     1.7320     0.3490 hc         1 O84       0.022200
@<TRIPOS>BOND
     1     1     2 1   
     2     2     3 1   
     3     2     4 1   
     4     2     5 1   
     5     5     6 1   
     6     5    12 1   
     7     5    13 1   
     8     6     7 ar  
     9     6    11 ar  
    10     7     8 ar  
    11     7    35 1   
    12     8     9 ar  
    13     8    36 1   
    14     9    10 ar  
    15     9    37 1   
    16    10    11 ar  
    17    10    38 1   
    18    11    39 1   
    19    12    17 1   
    20    13    14 1   
    21    14    15 1   
    22    14    40 1   
    23    14    41 1   
    24    15    16 1   
    25    15    17 1   
    26    15    42 1   
    27    16    19 1   
    28    17    18 1   
    29    17    43 1   
    30    18    19 1   
    31    18    44 1   
    32    18    45 1   
    33    19    20 1   
    34    19    46 1   
    35    20    21 1   
    36    20    22 1   
    37    21    27 2   
    38    21    47 1   
    39    22    23 2   
    40    22    24 1   
    41    24    25 1   
    42    24    48 1   
    43    25    26 2   
    44    25    27 1   
    45    27    28 1   
    46    28    29 2   
    47    28    49 1   
    48    29    30 1   
    49    29    50 1   
    50    30    31 1   
    51    30    51 1   
    52    30    52 1   
    53    31    32 1   
    54    31    33 1   
    55    31    34 1   
@<TRIPOS>SUBSTRUCTURE
     1 O84         1 TEMP              0 ****  ****    0 ROOT
