@<TRIPOS>MOLECULE
O85
   26    26     1     0     0
SMALL
No Charge or Current Charge


@<TRIPOS>ATOM
      1 C02        -15.2700   -18.5650     3.2800 c3         1 O85       0.048600
      2 C03        -16.3190   -18.7840     2.1660 c3         1 O85       0.115000
      3 C05        -16.5830   -21.1720     1.3780 c          1 O85       0.615700
      4 C06        -18.0370   -21.2680     1.7980 ca         1 O85      -0.113600
      5 C07        -18.4740   -22.3940     2.5320 ca         1 O85      -0.102000
      6 C08        -19.8200   -22.5190     2.9100 ca         1 O85       0.166000
      7 C10        -20.7540   -21.5370     2.5490 ca         1 O85      -0.139000
      8 C11        -20.3400   -20.4260     1.7960 ca         1 O85      -0.093000
      9 C12        -18.9920   -20.2960     1.4160 ca         1 O85      -0.108000
     10 C14        -14.6980   -19.7790     0.5140 c3         1 O85       0.080300
     11 F09        -20.2200   -23.5950     3.6230 f          1 O85      -0.176000
     12 N04        -15.9900   -19.8940     1.2280 n          1 O85      -0.400800
     13 O13        -15.9640   -22.1860     1.0750 o          1 O85      -0.578100
     14 S01        -15.0500   -20.0250     4.4080 sh         1 O85      -0.441800
     15 H021       -14.2980   -18.3200     2.8320 h1         1 O85       0.064700
     16 H022       -15.5780   -17.7070     3.8910 h1         1 O85       0.064700
     17 H032       -16.4170   -17.8570     1.5860 h1         1 O85       0.064200
     18 H031       -17.2800   -18.9590     2.6600 h1         1 O85       0.064200
     19 H071       -17.7680   -23.1690     2.8200 ha         1 O85       0.150000
     20 H101       -21.7950   -21.6440     2.8440 ha         1 O85       0.133000
     21 H111       -21.0640   -19.6700     1.5000 ha         1 O85       0.119000
     22 H121       -18.6960   -19.4430     0.8080 ha         1 O85       0.122000
     23 H141       -14.4590   -18.7240     0.3280 h1         1 O85       0.044367
     24 H143       -13.8980   -20.2300     1.1160 h1         1 O85       0.044367
     25 H142       -14.7580   -20.2990    -0.4510 h1         1 O85       0.044367
     26 H1         -14.1060   -19.4610     5.2020 hs         1 O85       0.212800
@<TRIPOS>BOND
     1     1     2 1   
     2     1    14 1   
     3     1    15 1   
     4     1    16 1   
     5     2    12 1   
     6     2    17 1   
     7     2    18 1   
     8     3     4 1   
     9     3    12 1   
    10     3    13 2   
    11     4     5 ar  
    12     4     9 ar  
    13     5     6 ar  
    14     5    19 1   
    15     6     7 ar  
    16     6    11 1   
    17     7     8 ar  
    18     7    20 1   
    19     8     9 ar  
    20     8    21 1   
    21     9    22 1   
    22    10    12 1   
    23    10    23 1   
    24    10    24 1   
    25    10    25 1   
    26    14    26 1   
@<TRIPOS>SUBSTRUCTURE
     1 O85         1 TEMP              0 ****  ****    0 ROOT
