@<TRIPOS>MOLECULE
O85
   26    26     1     0     0
SMALL
abcg2


@<TRIPOS>ATOM
      1 C02        -15.3690   -18.7050     3.3150 c3         1 O85       0.048600
      2 C03        -16.3290   -18.8040     2.1380 c3         1 O85       0.115000
      3 C05        -16.6280   -21.0650     1.1710 c          1 O85       0.615700
      4 C06        -18.0160   -21.1490     1.7290 ca         1 O85      -0.113600
      5 C07        -18.2940   -22.1460     2.6580 ca         1 O85      -0.102000
      6 C08        -19.5910   -22.2830     3.1090 ca         1 O85       0.166000
      7 C10        -20.6250   -21.4890     2.6510 ca         1 O85      -0.139000
      8 C11        -20.3360   -20.5150     1.7070 ca         1 O85      -0.093000
      9 C12        -19.0380   -20.3370     1.2480 ca         1 O85      -0.108000
     10 C14        -14.6870   -19.7800     0.5860 c3         1 O85       0.080300
     11 F09        -19.8570   -23.2290     4.0230 f          1 O85      -0.176000
     12 N04        -15.9880   -19.8780     1.2220 n          1 O85      -0.400800
     13 O13        -16.1350   -22.0550     0.6490 o          1 O85      -0.578100
     14 S01        -15.3580   -20.2890     4.2180 sh         1 O85      -0.441800
     15 H021       -14.3590   -18.4640     2.9850 h1         1 O85       0.064700
     16 H022       -15.7100   -17.9060     3.9730 h1         1 O85       0.064700
     17 H032       -16.3110   -17.8550     1.5970 h1         1 O85       0.064200
     18 H031       -17.3410   -18.9390     2.5090 h1         1 O85       0.064200
     19 H071       -17.5130   -22.7940     3.0350 ha         1 O85       0.150000
     20 H101       -21.6320   -21.6300     3.0210 ha         1 O85       0.133000
     21 H111       -21.1310   -19.8870     1.3280 ha         1 O85       0.119000
     22 H121       -18.8290   -19.5720     0.5120 ha         1 O85       0.122000
     23 H141       -14.4420   -18.7290     0.4480 h1         1 O85       0.044367
     24 H143       -13.9000   -20.2440     1.1850 h1         1 O85       0.044367
     25 H142       -14.7020   -20.2570    -0.3910 h1         1 O85       0.044367
     26 H1         -14.5090   -19.9230     5.1840 hs         1 O85       0.212800
@<TRIPOS>BOND
     1     1     2 1   
     2     1    14 1   
     3     1    15 1   
     4     1    16 1   
     5     2    12 1   
     6     2    17 1   
     7     2    18 1   
     8     3     4 1   
     9     3    12 1   
    10     3    13 2   
    11     4     5 ar  
    12     4     9 ar  
    13     5     6 ar  
    14     5    19 1   
    15     6     7 ar  
    16     6    11 1   
    17     7     8 ar  
    18     7    20 1   
    19     8     9 ar  
    20     8    21 1   
    21     9    22 1   
    22    10    12 1   
    23    10    23 1   
    24    10    24 1   
    25    10    25 1   
    26    14    26 1   
@<TRIPOS>SUBSTRUCTURE
     1 O85         1 TEMP              0 ****  ****    0 ROOT
