@<TRIPOS>MOLECULE
O86
   45    47     1     0     0
SMALL
abcg2


@<TRIPOS>ATOM
      1 C8          20.5750    -4.8140    79.6990 ca         1 O86      -0.061000
      2 C5          23.2070    -7.7600    77.6580 ca         1 O86       0.402900
      3 C6          22.2080    -6.5550    79.5720 ca         1 O86       0.351000
      4 N1          22.7970    -7.6620    78.9410 nu         1 O86      -0.952900
      5 C2          24.1540    -9.0960    76.0860 ca         1 O86       0.311300
      6 C4          23.1460    -6.7100    76.7290 ca         1 O86      -0.321000
      7 C3          23.6380    -7.0140    75.4810 ca         1 O86       0.249000
      8 N           24.1360    -8.1760    75.1210 nb         1 O86      -0.209000
      9 N2          23.7220    -8.9470    77.3190 nb         1 O86      -0.231000
     10 S           24.8640   -10.6110    75.5930 ss         1 O86      -0.310300
     11 C1          24.6290   -11.6390    77.0540 c3         1 O86      -0.090400
     12 C           23.1640   -12.0370    77.3770 c          1 O86       0.736000
     13 O1          22.3120   -11.9090    76.4870 o          1 O86      -0.714000
     14 O           23.0180   -12.4980    78.5240 o          1 O86      -0.714000
     15 C19         22.7120    -6.1750    80.8160 ca         1 O86      -0.238000
     16 C10         22.1290    -5.1170    81.5070 ca         1 O86       0.159100
     17 C9          21.0560    -4.4290    80.9360 ca         1 O86      -0.173000
     18 C7          21.1290    -5.8860    79.0100 ca         1 O86      -0.166000
     19 O2          22.5490    -4.6690    82.7050 os         1 O86      -0.355100
     20 C11         23.5480    -5.3750    83.4260 c3         1 O86       0.168600
     21 C12         23.0640    -6.6710    84.0550 c3         1 O86      -0.068100
     22 C13         22.1370    -6.5510    85.2400 ca         1 O86      -0.068300
     23 C18         21.3860    -5.4120    85.5220 ca         1 O86      -0.106000
     24 C17         20.5470    -5.3690    86.6300 ca         1 O86      -0.112000
     25 C16         20.4360    -6.4640    87.4730 ca         1 O86      -0.117000
     26 C15         21.1760    -7.6090    87.2000 ca         1 O86      -0.112000
     27 C14         22.0150    -7.6460    86.0980 ca         1 O86      -0.106000
     28 H1          19.7350    -4.2840    79.2680 ha         1 O86       0.111000
     29 H2          23.0610    -8.4410    79.5270 hn         1 O86       0.524000
     30 H3          22.7660    -5.7300    76.9690 ha         1 O86       0.137000
     31 H4          25.2010   -12.5460    76.8360 h1         1 O86       0.054700
     32 H5          25.1030   -11.1660    77.9130 h1         1 O86       0.054700
     33 H7          23.5610    -6.7160    81.2100 ha         1 O86       0.122000
     34 H8          20.6080    -3.6000    81.4700 ha         1 O86       0.119000
     35 H9          20.7070    -6.2050    78.0660 ha         1 O86       0.137000
     36 H10         24.4130    -5.5750    82.7870 h1         1 O86       0.053700
     37 H11         23.8810    -4.6820    84.1990 h1         1 O86       0.053700
     38 H12         22.5980    -7.3070    83.2970 hc         1 O86       0.063700
     39 H13         23.9570    -7.2180    84.3710 hc         1 O86       0.063700
     40 H14         21.4410    -4.5430    84.8810 ha         1 O86       0.118500
     41 H15         19.9770    -4.4710    86.8310 ha         1 O86       0.108000
     42 H16         19.7820    -6.4280    88.3350 ha         1 O86       0.106000
     43 H17         21.1030    -8.4710    87.8500 ha         1 O86       0.108000
     44 H18         22.5940    -8.5420    85.8990 ha         1 O86       0.118500
     45 CL          23.6200    -5.7850    74.2640 cl         1 O86      -0.206000
@<TRIPOS>BOND
     1     1    17 ar  
     2     1    18 ar  
     3     1    28 1   
     4     2     4 1   
     5     2     6 ar  
     6     2     9 ar  
     7     3     4 1   
     8     3    15 ar  
     9     3    18 ar  
    10     4    29 1   
    11     5     8 ar  
    12     5     9 ar  
    13     5    10 1   
    14     6     7 ar  
    15     6    30 1   
    16     7     8 ar  
    17     7    45 1   
    18    10    11 1   
    19    11    12 1   
    20    11    31 1   
    21    11    32 1   
    22    12    13 1   
    23    12    14 1   
    24    15    16 ar  
    25    15    33 1   
    26    16    17 ar  
    27    16    19 1   
    28    17    34 1   
    29    18    35 1   
    30    19    20 1   
    31    20    21 1   
    32    20    36 1   
    33    20    37 1   
    34    21    22 1   
    35    21    38 1   
    36    21    39 1   
    37    22    23 ar  
    38    22    27 ar  
    39    23    24 ar  
    40    23    40 1   
    41    24    25 ar  
    42    24    41 1   
    43    25    26 ar  
    44    25    42 1   
    45    26    27 ar  
    46    26    43 1   
    47    27    44 1   
@<TRIPOS>SUBSTRUCTURE
     1 O86         1 TEMP              0 ****  ****    0 ROOT
