@<TRIPOS>MOLECULE
O86
   45    47     1     0     0
SMALL
No Charge or Current Charge


@<TRIPOS>ATOM
      1 C8          20.2800    -5.5900    80.1800 ca         1 O86      -0.061000
      2 C5          23.4830    -7.7310    77.8040 ca         1 O86       0.402900
      3 C6          22.4980    -6.5390    79.8380 ca         1 O86       0.351000
      4 N1          23.3890    -7.3400    79.1290 nu         1 O86      -0.952900
      5 C2          24.3930    -9.1790    76.2810 ca         1 O86       0.311300
      6 C4          22.8570    -7.0330    76.7680 ca         1 O86      -0.321000
      7 C3          23.0560    -7.5100    75.4670 ca         1 O86       0.249000
      8 N           23.8230    -8.5840    75.2140 nb         1 O86      -0.209000
      9 N2          24.2660    -8.7930    77.5680 nb         1 O86      -0.231000
     10 S           25.4310   -10.5950    75.9530 ss         1 O86      -0.310300
     11 C1          24.6110   -11.9510    76.9290 c3         1 O86      -0.090400
     12 C           23.1640   -12.2350    76.4750 c          1 O86       0.736000
     13 O1          22.9940   -13.0010    75.5370 o          1 O86      -0.714000
     14 O           22.2500   -11.6920    77.0800 o          1 O86      -0.714000
     15 C19         22.9500    -5.9000    81.0000 ca         1 O86      -0.238000
     16 C10         22.0710    -5.0950    81.7540 ca         1 O86       0.159100
     17 C9          20.7420    -4.9360    81.3320 ca         1 O86      -0.173000
     18 C7          21.1580    -6.3970    79.4390 ca         1 O86      -0.166000
     19 O2          22.4610    -4.4310    82.9000 os         1 O86      -0.355100
     20 C11         23.6750    -4.7350    83.6210 c3         1 O86       0.168600
     21 C12         23.5410    -6.1180    84.3030 c3         1 O86      -0.068100
     22 C13         22.3400    -6.2110    85.2390 ca         1 O86      -0.068300
     23 C18         22.4110    -5.6730    86.5390 ca         1 O86      -0.106000
     24 C17         21.3040    -5.7560    87.4020 ca         1 O86      -0.112000
     25 C16         20.1200    -6.3760    86.9700 ca         1 O86      -0.117000
     26 C15         20.0430    -6.9130    85.6740 ca         1 O86      -0.112000
     27 C14         21.1500    -6.8310    84.8110 ca         1 O86      -0.106000
     28 H1          19.2440    -5.4780    79.8660 ha         1 O86       0.111000
     29 H2          24.1460    -7.7130    79.7010 hn         1 O86       0.524000
     30 H3          22.2610    -6.1460    76.9480 ha         1 O86       0.137000
     31 H4          25.1940   -12.8740    76.8200 h1         1 O86       0.054700
     32 H5          24.5980   -11.6760    77.9910 h1         1 O86       0.054700
     33 H7          23.9860    -6.0230    81.2950 ha         1 O86       0.122000
     34 H8          20.0650    -4.3120    81.9100 ha         1 O86       0.119000
     35 H9          20.7890    -6.9230    78.5640 ha         1 O86       0.137000
     36 H10         24.5510    -4.7120    82.9620 h1         1 O86       0.053700
     37 H11         23.8360    -3.9790    84.4000 h1         1 O86       0.053700
     38 H12         23.4920    -6.9030    83.5400 hc         1 O86       0.063700
     39 H13         24.4620    -6.3130    84.8650 hc         1 O86       0.063700
     40 H14         23.3240    -5.1910    86.8820 ha         1 O86       0.118500
     41 H15         21.3650    -5.3400    88.4050 ha         1 O86       0.108000
     42 H16         19.2630    -6.4400    87.6370 ha         1 O86       0.106000
     43 H17         19.1260    -7.3920    85.3370 ha         1 O86       0.108000
     44 H18         21.0800    -7.2460    83.8080 ha         1 O86       0.118500
     45 Cl          22.3190    -6.7030    74.0930 cl         1 O86      -0.206000
@<TRIPOS>BOND
     1     1    17 ar  
     2     1    18 ar  
     3     1    28 1   
     4     2     4 1   
     5     2     6 ar  
     6     2     9 ar  
     7     3     4 1   
     8     3    15 ar  
     9     3    18 ar  
    10     4    29 1   
    11     5     8 ar  
    12     5     9 ar  
    13     5    10 1   
    14     6     7 ar  
    15     6    30 1   
    16     7     8 ar  
    17     7    45 1   
    18    10    11 1   
    19    11    12 1   
    20    11    31 1   
    21    11    32 1   
    22    12    13 1   
    23    12    14 1   
    24    15    16 ar  
    25    15    33 1   
    26    16    17 ar  
    27    16    19 1   
    28    17    34 1   
    29    18    35 1   
    30    19    20 1   
    31    20    21 1   
    32    20    36 1   
    33    20    37 1   
    34    21    22 1   
    35    21    38 1   
    36    21    39 1   
    37    22    23 ar  
    38    22    27 ar  
    39    23    24 ar  
    40    23    40 1   
    41    24    25 ar  
    42    24    41 1   
    43    25    26 ar  
    44    25    42 1   
    45    26    27 ar  
    46    26    43 1   
    47    27    44 1   
@<TRIPOS>SUBSTRUCTURE
     1 O86         1 TEMP              0 ****  ****    0 ROOT
