@<TRIPOS>MOLECULE
O87
   47    50     1     0     0
SMALL
abcg2


@<TRIPOS>ATOM
      1 N1           6.7400    -1.7580    21.6770 n          1 O87      -0.409800
      2 C4          10.6360    -3.5340    24.4840 ca         1 O87      -0.129000
      3 C5          10.4520    -2.4790    23.5690 ca         1 O87       0.298000
      4 C6          11.5760    -1.7090    23.2360 ca         1 O87      -0.132000
      5 C7           8.3400    -3.3240    22.6490 c6         1 O87       0.180300
      6 C8           6.8800    -2.9090    22.5610 c6         1 O87       0.093500
      7 C10          9.0410    -1.0550    22.1580 c6         1 O87       0.180300
      8 C13          6.4970    -0.5080    18.5900 cc         1 O87      -0.257200
      9 C15          4.9030     1.6650    19.3230 ca         1 O87       0.102600
     10 C17          3.4320     2.7600    20.8780 ca         1 O87      -0.052000
     11 C20          5.0010     0.5530    20.1870 ca         1 O87      -0.126800
     12 C14          6.4030     0.6260    17.6920 c          1 O87       0.557200
     13 N2           5.5950     1.6480    18.1340 ns         1 O87      -0.374100
     14 C19          4.2940     0.5760    21.4020 ca         1 O87      -0.049000
     15 C18          3.5190     1.6630    21.7460 ca         1 O87      -0.145000
     16 C16          4.1130     2.7660    19.6770 ca         1 O87      -0.166000
     17 C12          5.8350    -0.5420    19.7700 cd         1 O87      -0.037400
     18 C11          5.9080    -1.7840    20.6230 c          1 O87       0.607300
     19 O            5.2020    -2.7490    20.3240 o          1 O87      -0.584100
     20 C9           7.5820    -0.6310    22.0570 c6         1 O87       0.093500
     21 N            9.1850    -2.1970    23.0530 nh         1 O87      -0.796400
     22 C3          11.8770    -3.7940    25.0380 ca         1 O87      -0.084000
     23 C2          12.9860    -3.0170    24.7160 ca         1 O87      -0.095000
     24 C1          12.8140    -1.9770    23.8120 ca         1 O87      -0.153300
     25 C           13.9700    -1.0820    23.4800 c3         1 O87       0.340300
     26 F           15.1630    -1.7050    23.5900 f          1 O87      -0.113333
     27 F1          14.0290    -0.0040    24.3080 f          1 O87      -0.113333
     28 F2          13.9050    -0.5840    22.2240 f          1 O87      -0.113333
     29 H1           9.7950    -4.1430    24.7830 ha         1 O87       0.119000
     30 H2          11.5020    -0.9080    22.5190 ha         1 O87       0.128000
     31 H3           8.4230    -4.1310    23.3700 h1         1 O87       0.052700
     32 H4           8.6680    -3.7070    21.6720 h1         1 O87       0.052700
     33 H5           6.5080    -2.6350    23.5530 h1         1 O87       0.068200
     34 H6           6.2790    -3.7250    22.1710 h1         1 O87       0.068200
     35 H7           9.4290    -1.2820    21.1540 h1         1 O87       0.052700
     36 H8           9.5990    -0.2090    22.5550 h1         1 O87       0.052700
     37 H9           7.1290    -1.3270    18.2730 ha         1 O87       0.218000
     38 H10          2.8240     3.6140    21.1480 ha         1 O87       0.120000
     39 H11          5.5180     2.4500    17.5200 hn         1 O87       0.331500
     40 H12          4.3640    -0.2720    22.0710 ha         1 O87       0.124000
     41 H13          2.9810     1.6710    22.6840 ha         1 O87       0.123000
     42 H14          4.0480     3.6110    19.0030 ha         1 O87       0.123000
     43 H15          7.4910     0.1670    21.3260 h1         1 O87       0.068200
     44 H16          7.2420    -0.2540    23.0250 h1         1 O87       0.068200
     45 H17         11.9800    -4.6090    25.7430 ha         1 O87       0.121000
     46 H18         13.9510    -3.2190    25.1570 ha         1 O87       0.133000
     47 O1           6.9870     0.7060    16.6060 o          1 O87      -0.546000
@<TRIPOS>BOND
     1     1     6 1   
     2     1    18 1   
     3     1    20 1   
     4     2     3 ar  
     5     2    22 ar  
     6     2    29 1   
     7     3     4 ar  
     8     3    21 1   
     9     4    24 ar  
    10     4    30 1   
    11     5     6 1   
    12     5    21 1   
    13     5    31 1   
    14     5    32 1   
    15     6    33 1   
    16     6    34 1   
    17     7    20 1   
    18     7    21 1   
    19     7    35 1   
    20     7    36 1   
    21     8    12 1   
    22     8    17 2   
    23     8    37 1   
    24     9    11 ar  
    25     9    13 1   
    26     9    16 ar  
    27    10    15 ar  
    28    10    16 ar  
    29    10    38 1   
    30    11    14 ar  
    31    11    17 1   
    32    12    13 1   
    33    12    47 2   
    34    13    39 1   
    35    14    15 ar  
    36    14    40 1   
    37    15    41 1   
    38    16    42 1   
    39    17    18 1   
    40    18    19 2   
    41    20    43 1   
    42    20    44 1   
    43    22    23 ar  
    44    22    45 1   
    45    23    24 ar  
    46    23    46 1   
    47    24    25 1   
    48    25    26 1   
    49    25    27 1   
    50    25    28 1   
@<TRIPOS>SUBSTRUCTURE
     1 O87         1 TEMP              0 ****  ****    0 ROOT
