@<TRIPOS>MOLECULE
O87
   47    50     1     0     0
SMALL
No Charge or Current Charge


@<TRIPOS>ATOM
      1 N1           6.6870    -1.8180    21.4970 n          1 O87      -0.409800
      2 C4          10.4330    -3.1960    24.8230 ca         1 O87      -0.129000
      3 C5          10.4200    -2.3910    23.6700 ca         1 O87       0.298000
      4 C6          11.6250    -1.7940    23.2430 ca         1 O87      -0.132000
      5 C7           8.4310    -3.3680    22.4640 c6         1 O87       0.180300
      6 C8           6.9210    -3.0360    22.3220 c6         1 O87       0.093500
      7 C10          8.9640    -0.9440    22.1800 c6         1 O87       0.180300
      8 C13          5.9820    -0.5660    18.1040 cc         1 O87      -0.257200
      9 C15          4.8990     1.6940    19.3930 ca         1 O87       0.102600
     10 C17          3.8860     2.8040    21.3040 ca         1 O87      -0.052000
     11 C20          5.1180     0.5250    20.1500 ca         1 O87      -0.126800
     12 C14          5.7270     0.6420    17.3070 c          1 O87       0.557200
     13 N2           5.2360     1.6930    18.0310 ns         1 O87      -0.374100
     14 C19          4.6300     0.4910    21.4790 ca         1 O87      -0.049000
     15 C18          4.0350     1.6280    22.0530 ca         1 O87      -0.145000
     16 C16          4.3060     2.8310    19.9650 ca         1 O87      -0.166000
     17 C12          5.7610    -0.6420    19.4750 cd         1 O87      -0.037400
     18 C11          6.2200    -1.9070    20.1640 c          1 O87       0.607300
     19 O            6.2500    -2.9850    19.5780 o          1 O87      -0.584100
     20 C9           7.4480    -0.6390    22.0140 c6         1 O87       0.093500
     21 N            9.2070    -2.1930    22.9660 nh         1 O87      -0.796400
     22 C3          11.6230    -3.3990    25.5410 ca         1 O87      -0.084000
     23 C2          12.8180    -2.8020    25.1080 ca         1 O87      -0.095000
     24 C1          12.8340    -1.9970    23.9480 ca         1 O87      -0.153300
     25 C           14.1300    -1.3320    23.4670 c3         1 O87       0.340300
     26 F           15.2380    -1.9800    23.8950 f          1 O87      -0.113333
     27 F1          14.2220    -0.0590    23.9120 f          1 O87      -0.113333
     28 F2          14.2090    -1.2860    22.1170 f          1 O87      -0.113333
     29 H1           9.5130    -3.6520    25.1740 ha         1 O87       0.119000
     30 H2          11.6280    -1.1760    22.3510 ha         1 O87       0.128000
     31 H3           8.5360    -4.2280    23.1400 h1         1 O87       0.052700
     32 H4           8.8200    -3.6780    21.4830 h1         1 O87       0.052700
     33 H5           6.5010    -2.8680    23.3240 h1         1 O87       0.068200
     34 H6           6.3940    -3.9020    21.8980 h1         1 O87       0.068200
     35 H7           9.4150    -1.0390    21.1820 h1         1 O87       0.052700
     36 H8           9.4370    -0.0820    22.6740 h1         1 O87       0.052700
     37 H9           6.4170    -1.3860    17.5450 ha         1 O87       0.218000
     38 H10          3.4210     3.6820    21.7490 ha         1 O87       0.120000
     39 H11          5.0610     2.5430    17.5120 hn         1 O87       0.331500
     40 H12          4.6830    -0.4140    22.0760 ha         1 O87       0.124000
     41 H13          3.6770     1.5910    23.0790 ha         1 O87       0.123000
     42 H14          4.1530     3.7290    19.3710 ha         1 O87       0.123000
     43 H15          7.3530     0.2260    21.3460 h1         1 O87       0.068200
     44 H16          7.0350    -0.3470    22.9900 h1         1 O87       0.068200
     45 H17         11.6190    -4.0170    26.4360 ha         1 O87       0.121000
     46 H18         13.7290    -2.9660    25.6810 ha         1 O87       0.133000
     47 O1           5.9430     0.7270    16.1090 o          1 O87      -0.546000
@<TRIPOS>BOND
     1     1     6 1   
     2     1    18 1   
     3     1    20 1   
     4     2     3 ar  
     5     2    22 ar  
     6     2    29 1   
     7     3     4 ar  
     8     3    21 1   
     9     4    24 ar  
    10     4    30 1   
    11     5     6 1   
    12     5    21 1   
    13     5    31 1   
    14     5    32 1   
    15     6    33 1   
    16     6    34 1   
    17     7    20 1   
    18     7    21 1   
    19     7    35 1   
    20     7    36 1   
    21     8    12 1   
    22     8    17 2   
    23     8    37 1   
    24     9    11 ar  
    25     9    13 1   
    26     9    16 ar  
    27    10    15 ar  
    28    10    16 ar  
    29    10    38 1   
    30    11    14 ar  
    31    11    17 1   
    32    12    13 1   
    33    12    47 2   
    34    13    39 1   
    35    14    15 ar  
    36    14    40 1   
    37    15    41 1   
    38    16    42 1   
    39    17    18 1   
    40    18    19 2   
    41    20    43 1   
    42    20    44 1   
    43    22    23 ar  
    44    22    45 1   
    45    23    24 ar  
    46    23    46 1   
    47    24    25 1   
    48    25    26 1   
    49    25    27 1   
    50    25    28 1   
@<TRIPOS>SUBSTRUCTURE
     1 O87         1 TEMP              0 ****  ****    0 ROOT
