@<TRIPOS>MOLECULE
O88
   47    49     1     0     0
SMALL
No Charge or Current Charge


@<TRIPOS>ATOM
      1 C17         23.7760   -42.6000    28.9560 ca         1 O88      -0.069000
      2 O4          15.4440   -36.9140    28.8150 o          1 O88      -0.528000
      3 C18         24.6270   -42.4660    30.0700 ca         1 O88       0.024100
      4 C16         18.8670   -39.5610    27.9470 ca         1 O88      -0.115500
      5 C15         17.6750   -38.8410    28.1400 ca         1 O88      -0.016000
      6 C14         13.8610   -38.9180    27.1950 ca         1 O88      -0.068000
      7 C13         12.9340   -39.6970    26.4750 ca         1 O88       0.026100
      8 O3          12.6830   -39.4330    25.1500 oh         1 O88      -0.558100
      9 C10         13.4340   -40.2610    29.1920 ca         1 O88       0.000000
     10 C12         12.2610   -40.7540    27.1200 ca         1 O88       0.180100
     11 C11         12.5100   -41.0360    28.4700 ca         1 O88      -0.149000
     12 C8          16.8490   -39.1250    29.2470 ca         1 O88      -0.258500
     13 C9          14.1100   -39.1970    28.5580 ca         1 O88      -0.277500
     14 C7          17.2220   -40.1420    30.1510 ca         1 O88      -0.016000
     15 C6          18.4150   -40.8570    29.9520 ca         1 O88      -0.115500
     16 C5          19.2460   -40.5710    28.8520 ca         1 O88      -0.043300
     17 C2          22.3730   -44.1540    30.2200 ca         1 O88       0.007000
     18 O1          22.0940   -42.9670    26.4400 o          1 O88      -0.542000
     19 C1          23.2240   -44.0180    31.3290 ca         1 O88      -0.149000
     20 C3          22.6460   -43.4480    29.0300 ca         1 O88      -0.288500
     21 C4          20.5380   -41.3510    28.6460 c3         1 O88       0.247100
     22 O6          21.0130   -44.9930    27.5930 o          1 O88      -0.542000
     23 S           21.5340   -43.6250    27.6210 sy         1 O88       1.149600
     24 O7          25.7280   -41.6470    30.0120 oh         1 O88      -0.558100
     25 C           24.3450   -43.1780    31.2540 ca         1 O88       0.183100
     26 O           25.1740   -43.0420    32.3270 oh         1 O88      -0.522100
     27 N           20.2460   -42.6820    28.0910 n7         1 O88      -0.886300
     28 H15         23.9880   -42.0510    28.0410 ha         1 O88       0.141000
     29 H14         19.4960   -39.3310    27.0890 ha         1 O88       0.124000
     30 H13         17.3990   -38.0660    27.4260 ha         1 O88       0.135500
     31 H12         14.3860   -38.1040    26.6990 ha         1 O88       0.132000
     32 H11         13.2280   -38.6670    24.8610 ho         1 O88       0.482000
     33 H8          13.6210   -40.4930    30.2400 ha         1 O88       0.143000
     34 H9          11.9880   -41.8550    28.9580 ha         1 O88       0.138000
     35 H7          16.5920   -40.3830    31.0060 ha         1 O88       0.135500
     36 H6          18.6940   -41.6410    30.6530 ha         1 O88       0.124000
     37 H10         11.3630   -41.1240    25.5080 ho         1 O88       0.491000
     38 H2          21.5010   -44.8040    30.2880 ha         1 O88       0.135000
     39 H1          23.0140   -44.5610    32.2460 ha         1 O88       0.139000
     40 H4          21.0500   -41.4330    29.6150 h1         1 O88       0.060700
     41 H5          21.1980   -40.7810    27.9770 h1         1 O88       0.060700
     42 H16         25.7830   -41.2360    29.1190 ho         1 O88       0.483000
     43 H           25.8740   -42.4140    32.0390 ho         1 O88       0.492000
     44 H3          19.7690   -42.5650    27.2000 hn         1 O88       0.491000
     45 S1          15.3090   -38.2140    29.4880 sy         1 O88       1.032000
     46 O2          11.3660   -41.5030    26.4160 oh         1 O88      -0.523100
     47 O5          14.9530   -38.3000    30.9120 o          1 O88      -0.528000
@<TRIPOS>BOND
     1     1     3 ar  
     2     1    20 ar  
     3     1    28 1   
     4     2    45 2   
     5     3    24 1   
     6     3    25 ar  
     7     4     5 ar  
     8     4    16 ar  
     9     4    29 1   
    10     5    12 ar  
    11     5    30 1   
    12     6     7 ar  
    13     6    13 ar  
    14     6    31 1   
    15     7     8 1   
    16     7    10 ar  
    17     8    32 1   
    18     9    11 ar  
    19     9    13 ar  
    20     9    33 1   
    21    10    11 ar  
    22    10    46 1   
    23    11    34 1   
    24    12    14 ar  
    25    12    45 1   
    26    13    45 1   
    27    14    15 ar  
    28    14    35 1   
    29    15    16 ar  
    30    15    36 1   
    31    16    21 1   
    32    17    19 ar  
    33    17    20 ar  
    34    17    38 1   
    35    18    23 2   
    36    19    25 ar  
    37    19    39 1   
    38    20    23 1   
    39    21    27 1   
    40    21    40 1   
    41    21    41 1   
    42    22    23 2   
    43    23    27 1   
    44    24    42 1   
    45    25    26 1   
    46    26    43 1   
    47    27    44 1   
    48    37    46 1   
    49    45    47 2   
@<TRIPOS>SUBSTRUCTURE
     1 O88         1 TEMP              0 ****  ****    0 ROOT
