@<TRIPOS>MOLECULE
O88
   47    49     1     0     0
SMALL
abcg2


@<TRIPOS>ATOM
      1 C17         23.7830   -42.5530    29.3070 ca         1 O88      -0.069000
      2 O4          15.7660   -37.2810    29.3190 o          1 O88      -0.528000
      3 C18         24.2090   -42.3170    30.6010 ca         1 O88       0.024100
      4 C16         18.9380   -39.4870    27.4120 ca         1 O88      -0.115500
      5 C15         17.8140   -38.8740    27.9420 ca         1 O88      -0.016000
      6 C14         13.9860   -38.9680    27.6240 ca         1 O88      -0.068000
      7 C13         12.9280   -39.5620    26.9630 ca         1 O88       0.026100
      8 O3          12.4730   -39.1810    25.7540 oh         1 O88      -0.558100
      9 C10         13.7080   -40.5080    29.4720 ca         1 O88       0.000000
     10 C12         12.2440   -40.6380    27.5600 ca         1 O88       0.180100
     11 C11         12.6430   -41.0970    28.8060 ca         1 O88      -0.149000
     12 C8          17.1660   -39.4680    29.0150 ca         1 O88      -0.258500
     13 C9          14.3700   -39.4500    28.8730 ca         1 O88      -0.277500
     14 C7          17.6320   -40.6570    29.5630 ca         1 O88      -0.016000
     15 C6          18.7590   -41.2550    29.0250 ca         1 O88      -0.115500
     16 C5          19.4240   -40.6740    27.9480 ca         1 O88      -0.043300
     17 C2          21.8340   -43.7110    30.1550 ca         1 O88       0.007000
     18 O1          23.0450   -43.0230    26.5290 o          1 O88      -0.542000
     19 C1          22.2650   -43.4710    31.4480 ca         1 O88      -0.149000
     20 C3          22.5950   -43.2450    29.0940 ca         1 O88      -0.288500
     21 C4          20.6890   -41.2750    27.3940 c3         1 O88       0.247100
     22 O6          21.6810   -44.9690    27.3100 o          1 O88      -0.542000
     23 S           22.0530   -43.5690    27.4480 sy         1 O88       1.149600
     24 O7          25.3400   -41.6540    30.9180 oh         1 O88      -0.558100
     25 C           23.4460   -42.7790    31.6850 ca         1 O88       0.183100
     26 O           23.8260   -42.5650    32.9520 oh         1 O88      -0.522100
     27 N           20.6290   -42.7270    27.4090 n7         1 O88      -0.886300
     28 H15         24.3720   -42.1930    28.4720 ha         1 O88       0.141000
     29 H14         19.4440   -39.0280    26.5710 ha         1 O88       0.124000
     30 H13         17.4550   -37.9470    27.5160 ha         1 O88       0.135500
     31 H12         14.5020   -38.1340    27.1630 ha         1 O88       0.132000
     32 H11         12.9700   -38.4300    25.4070 ho         1 O88       0.482000
     33 H8          14.0020   -40.8780    30.4440 ha         1 O88       0.143000
     34 H9          12.1070   -41.9200    29.2600 ha         1 O88       0.138000
     35 H7          17.1290   -41.1170    30.4030 ha         1 O88       0.135500
     36 H6          19.1230   -42.1790    29.4540 ha         1 O88       0.124000
     37 H10         11.0200   -40.8100    26.1020 ho         1 O88       0.491000
     38 H2          20.9090   -44.2460    29.9890 ha         1 O88       0.135000
     39 H1          21.6830   -43.8220    32.2900 ha         1 O88       0.139000
     40 H4          21.5210   -40.9530    28.0260 h1         1 O88       0.060700
     41 H5          20.8840   -40.8800    26.3940 h1         1 O88       0.060700
     42 H16         25.8040   -41.3470    30.1310 ho         1 O88       0.483000
     43 H           24.6560   -42.0730    32.9860 ho         1 O88       0.492000
     44 H3          19.9850   -43.1250    26.7310 hn         1 O88       0.491000
     45 S1          15.7280   -38.6880    29.7030 sy         1 O88       1.032000
     46 O2          11.2100   -41.2310    26.9500 oh         1 O88      -0.523100
     47 O5          15.6540   -39.0460    31.1160 o          1 O88      -0.528000
@<TRIPOS>BOND
     1     1     3 ar  
     2     1    20 ar  
     3     1    28 1   
     4     2    45 2   
     5     3    24 1   
     6     3    25 ar  
     7     4     5 ar  
     8     4    16 ar  
     9     4    29 1   
    10     5    12 ar  
    11     5    30 1   
    12     6     7 ar  
    13     6    13 ar  
    14     6    31 1   
    15     7     8 1   
    16     7    10 ar  
    17     8    32 1   
    18     9    11 ar  
    19     9    13 ar  
    20     9    33 1   
    21    10    11 ar  
    22    10    46 1   
    23    11    34 1   
    24    12    14 ar  
    25    12    45 1   
    26    13    45 1   
    27    14    15 ar  
    28    14    35 1   
    29    15    16 ar  
    30    15    36 1   
    31    16    21 1   
    32    17    19 ar  
    33    17    20 ar  
    34    17    38 1   
    35    18    23 2   
    36    19    25 ar  
    37    19    39 1   
    38    20    23 1   
    39    21    27 1   
    40    21    40 1   
    41    21    41 1   
    42    22    23 2   
    43    23    27 1   
    44    24    42 1   
    45    25    26 1   
    46    26    43 1   
    47    27    44 1   
    48    37    46 1   
    49    45    47 2   
@<TRIPOS>SUBSTRUCTURE
     1 O88         1 TEMP              0 ****  ****    0 ROOT
