@<TRIPOS>MOLECULE
O89
   42    44     1     0     0
SMALL
abcg2


@<TRIPOS>ATOM
      1 C16          5.6130   -22.1840    15.7290 c3         1 O89      -0.060800
      2 C15          4.9380   -20.9290    15.2620 ca         1 O89      -0.041300
      3 C14          3.9520   -20.9900    14.2670 ca         1 O89      -0.067000
      4 C13          3.3070   -19.8630    13.7940 ca         1 O89      -0.085000
      5 C17          5.2820   -19.6940    15.7960 ca         1 O89      -0.049000
      6 C18          4.6360   -18.5610    15.3250 ca         1 O89      -0.186000
      7 C12          3.6600   -18.6350    14.3390 ca         1 O89      -0.048200
      8 N3           3.1360   -17.3940    14.0180 na         1 O89      -0.113500
      9 C11          2.0990   -17.2440    13.0090 c3         1 O89       0.040900
     10 S1           4.8680   -16.9160    15.8290 ss         1 O89       0.135800
     11 C10          3.6550   -16.3740    14.7030 cc         1 O89       0.501200
     12 N2           3.2330   -15.1370    14.5150 ne         1 O89      -0.779000
     13 C9           3.7920   -14.1220    15.1200 cf         1 O89       0.665800
     14 C8           3.3170   -12.8060    14.9820 ca         1 O89      -0.305900
     15 C5           3.9660   -11.7540    15.6640 ca         1 O89       0.036000
     16 C4           3.5310   -10.4620    15.5720 ca         1 O89      -0.227500
     17 C7           2.1960   -12.4800    14.1860 ca         1 O89       0.036000
     18 C6           1.7500   -11.1960    14.0810 ca         1 O89      -0.227500
     19 C3           2.4000   -10.1340    14.7750 ca         1 O89       0.424000
     20 N1           1.9580    -8.8750    14.6780 nh         1 O89      -0.763400
     21 C2           2.6260    -7.8040    15.3940 c3         1 O89       0.193600
     22 C1           0.8100    -8.5570    13.8490 c3         1 O89       0.193600
     23 H1           6.2410   -22.6030    14.9410 hc         1 O89       0.062033
     24 H2           6.2450   -22.0010    16.5960 hc         1 O89       0.062033
     25 H3           4.8820   -22.9470    15.9970 hc         1 O89       0.062033
     26 H4           3.6840   -21.9540    13.8530 ha         1 O89       0.141000
     27 H5           2.5510   -19.9450    13.0250 ha         1 O89       0.141000
     28 H6           6.0380   -19.6160    16.5670 ha         1 O89       0.144000
     29 H7           1.8310   -16.1980    12.9240 h1         1 O89       0.081700
     30 H8           2.4700   -17.6040    12.0520 h1         1 O89       0.081700
     31 H9           1.2240   -17.8220    13.3010 h1         1 O89       0.081700
     32 H10          4.6660   -14.2520    15.7650 h4         1 O89      -0.011200
     33 H11          4.8300   -11.9760    16.2790 ha         1 O89       0.127500
     34 H12          4.0620    -9.6950    16.1150 ha         1 O89       0.135000
     35 H13          1.6780   -13.2650    13.6500 ha         1 O89       0.127500
     36 H14          0.8890   -10.9980    13.4590 ha         1 O89       0.135000
     37 H15          2.6230    -7.9810    16.4710 h1         1 O89       0.059700
     38 H16          3.6600    -7.6840    15.0660 h1         1 O89       0.059700
     39 H17          2.1060    -6.8710    15.2090 h1         1 O89       0.059700
     40 H18          0.6080    -7.4930    13.9110 h1         1 O89       0.059700
     41 H19          0.9900    -8.8040    12.8010 h1         1 O89       0.059700
     42 H20         -0.0840    -9.0880    14.1810 h1         1 O89       0.059700
@<TRIPOS>BOND
     1     1     2 1   
     2     1    23 1   
     3     1    24 1   
     4     1    25 1   
     5     2     3 ar  
     6     2     5 ar  
     7     3     4 ar  
     8     3    26 1   
     9     4     7 ar  
    10     4    27 1   
    11     5     6 ar  
    12     5    28 1   
    13     6     7 ar  
    14     6    10 1   
    15     7     8 1   
    16     8     9 1   
    17     8    11 2   
    18     9    29 1   
    19     9    30 1   
    20     9    31 1   
    21    10    11 1   
    22    11    12 1   
    23    12    13 2   
    24    13    14 1   
    25    13    32 1   
    26    14    15 ar  
    27    14    17 ar  
    28    15    16 ar  
    29    15    33 1   
    30    16    19 ar  
    31    16    34 1   
    32    17    18 ar  
    33    17    35 1   
    34    18    19 ar  
    35    18    36 1   
    36    19    20 1   
    37    20    21 1   
    38    20    22 1   
    39    21    37 1   
    40    21    38 1   
    41    21    39 1   
    42    22    40 1   
    43    22    41 1   
    44    22    42 1   
@<TRIPOS>SUBSTRUCTURE
     1 O89         1 TEMP              0 ****  ****    0 ROOT
