@<TRIPOS>MOLECULE
O89
   42    44     1     0     0
SMALL
No Charge or Current Charge


@<TRIPOS>ATOM
      1 C16          5.6580   -22.2490    15.8480 c3         1 O89      -0.060800
      2 C15          4.9460   -21.0150    15.3130 ca         1 O89      -0.041300
      3 C14          3.9870   -21.1380    14.2840 ca         1 O89      -0.067000
      4 C13          3.3240   -20.0010    13.7800 ca         1 O89      -0.085000
      5 C17          5.2450   -19.7400    15.8370 ca         1 O89      -0.049000
      6 C18          4.5770   -18.6180    15.3240 ca         1 O89      -0.186000
      7 C12          3.6330   -18.7360    14.3160 ca         1 O89      -0.048200
      8 N3           3.0780   -17.5200    13.9380 na         1 O89      -0.113500
      9 C11          2.0370   -17.4410    12.8940 c3         1 O89       0.040900
     10 S1           4.8320   -16.9440    15.8720 ss         1 O89       0.135800
     11 C10          3.6190   -16.4530    14.6570 cc         1 O89       0.501200
     12 N2           3.2070   -15.1310    14.4970 ne         1 O89      -0.779000
     13 C9           3.8890   -14.1190    14.9530 cf         1 O89       0.665800
     14 C8           3.3670   -12.7390    14.8920 ca         1 O89      -0.305900
     15 C5           4.1590   -11.6790    15.3710 ca         1 O89       0.036000
     16 C4           3.6820   -10.3600    15.3200 ca         1 O89      -0.227500
     17 C7           2.0910   -12.4560    14.3600 ca         1 O89       0.036000
     18 C6           1.6240   -11.1330    14.3140 ca         1 O89      -0.227500
     19 C3           2.4120   -10.0720    14.7920 ca         1 O89       0.424000
     20 N1           1.9350    -8.7380    14.7430 nh         1 O89      -0.763400
     21 C2           2.3500    -7.7300    15.7490 c3         1 O89       0.193600
     22 C1           0.9990    -8.2900    13.6830 c3         1 O89       0.193600
     23 H1           6.5690   -22.4530    15.2730 hc         1 O89       0.062033
     24 H2           5.9460   -22.1210    16.8980 hc         1 O89       0.062033
     25 H3           5.0180   -23.1370    15.7890 hc         1 O89       0.062033
     26 H4           3.7540   -22.1180    13.8720 ha         1 O89       0.141000
     27 H5           2.5880   -20.1150    12.9870 ha         1 O89       0.141000
     28 H6           5.9850   -19.6270    16.6280 ha         1 O89       0.144000
     29 H7           1.7190   -16.4020    12.7450 h1         1 O89       0.081700
     30 H8           2.4340   -17.8280    11.9470 h1         1 O89       0.081700
     31 H9           1.1670   -18.0380    13.1940 h1         1 O89       0.081700
     32 H10          4.8980   -14.2320    15.3610 h4         1 O89      -0.011200
     33 H11          5.1500   -11.8710    15.7830 ha         1 O89       0.127500
     34 H12          4.3160    -9.5580    15.6850 ha         1 O89       0.135000
     35 H13          1.4540   -13.2550    13.9840 ha         1 O89       0.127500
     36 H14          0.6350   -10.9400    13.9120 ha         1 O89       0.135000
     37 H15          2.4880    -8.1980    16.7340 h1         1 O89       0.059700
     38 H16          3.2920    -7.2510    15.4520 h1         1 O89       0.059700
     39 H17          1.5840    -6.9500    15.8620 h1         1 O89       0.059700
     40 H18          1.0990    -7.2110    13.5020 h1         1 O89       0.059700
     41 H19          1.2110    -8.8020    12.7350 h1         1 O89       0.059700
     42 H20         -0.0400    -8.4970    13.9700 h1         1 O89       0.059700
@<TRIPOS>BOND
     1     1     2 1   
     2     1    23 1   
     3     1    24 1   
     4     1    25 1   
     5     2     3 ar  
     6     2     5 ar  
     7     3     4 ar  
     8     3    26 1   
     9     4     7 ar  
    10     4    27 1   
    11     5     6 ar  
    12     5    28 1   
    13     6     7 ar  
    14     6    10 1   
    15     7     8 1   
    16     8     9 1   
    17     8    11 2   
    18     9    29 1   
    19     9    30 1   
    20     9    31 1   
    21    10    11 1   
    22    11    12 1   
    23    12    13 2   
    24    13    14 1   
    25    13    32 1   
    26    14    15 ar  
    27    14    17 ar  
    28    15    16 ar  
    29    15    33 1   
    30    16    19 ar  
    31    16    34 1   
    32    17    18 ar  
    33    17    35 1   
    34    18    19 ar  
    35    18    36 1   
    36    19    20 1   
    37    20    21 1   
    38    20    22 1   
    39    21    37 1   
    40    21    38 1   
    41    21    39 1   
    42    22    40 1   
    43    22    41 1   
    44    22    42 1   
@<TRIPOS>SUBSTRUCTURE
     1 O89         1 TEMP              0 ****  ****    0 ROOT
