@<TRIPOS>MOLECULE
O8A
   40    43     1     0     0
SMALL
abcg2


@<TRIPOS>ATOM
      1 C1          -2.1890    -1.5660    -0.5740 ca         1 O8A       0.080400
      2 F1          -5.3680     1.5700     1.2400 f          1 O8A      -0.109667
      3 N1          -1.7360    -2.8510    -0.7630 nc         1 O8A      -0.563100
      4 O1          -4.8300     0.9230    -0.8220 os         1 O8A      -0.400100
      5 S1           2.2480    -0.3730    -0.5700 ss         1 O8A       0.225000
      6 C2          -1.1610    -0.7600    -0.0680 ca         1 O8A      -0.064200
      7 F2          -6.1280    -0.2970     0.5150 f          1 O8A      -0.109667
      8 N2          -0.0790    -1.6070     0.0450 na         1 O8A      -0.076400
      9 O2           5.7310    -0.0160     1.2290 o          1 O8A      -0.579100
     10 C3          -1.3260     0.5870     0.2070 ca         1 O8A      -0.098000
     11 F3          -6.8290     1.5500    -0.3450 f          1 O8A      -0.109667
     12 N3           5.0080     1.0100    -0.6450 ns         1 O8A      -0.480900
     13 C4          -2.5790     1.1240    -0.0350 ca         1 O8A      -0.088000
     14 C5          -3.6060     0.3200    -0.5350 ca         1 O8A       0.067100
     15 C6          -3.4460    -1.0220    -0.8160 ca         1 O8A      -0.035000
     16 C7          -0.4890    -2.8470    -0.3960 cd         1 O8A       0.450800
     17 C8          -5.7630     0.9300     0.1370 c3         1 O8A       0.512000
     18 C9           0.4360    -4.0030    -0.4280 c3         1 O8A      -0.117400
     19 C10          1.2020    -1.2610     0.4710 cc         1 O8A      -0.124200
     20 C11          3.5040    -0.4010     0.6070 cc         1 O8A      -0.277600
     21 C12          3.1200    -1.0810     1.7280 cd         1 O8A      -0.066000
     22 C13          1.7960    -1.5680     1.6570 cd         1 O8A      -0.123000
     23 C14          4.8420     0.2140     0.4250 c          1 O8A       0.642700
     24 C15          6.2710     1.5970    -0.9550 cx         1 O8A       0.045700
     25 C16          6.2740     2.9640    -1.5560 cx         1 O8A      -0.132400
     26 C17          6.7580     2.7620    -0.1530 cx         1 O8A      -0.132400
     27 H3          -0.5230     1.2020     0.5920 ha         1 O8A       0.132000
     28 HN3          4.2500     1.1760    -1.2890 hn         1 O8A       0.319500
     29 H4          -2.7590     2.1740     0.1490 ha         1 O8A       0.136000
     30 H6          -4.2500    -1.6210    -1.2230 ha         1 O8A       0.152000
     31 H9           1.3470    -3.7620    -0.9770 hc         1 O8A       0.065700
     32 H9A          0.7310    -4.3040     0.5770 hc         1 O8A       0.065700
     33 H9B         -0.0510    -4.8450    -0.9130 hc         1 O8A       0.065700
     34 H12          3.7670    -1.2170     2.5820 ha         1 O8A       0.163000
     35 H13          1.3010    -2.1200     2.4430 ha         1 O8A       0.153000
     36 H15          7.0200     0.8990    -1.3150 h1         1 O8A       0.091700
     37 H16          6.9980     3.1630    -2.3340 hc         1 O8A       0.079200
     38 H16A         5.3200     3.4580    -1.6930 hc         1 O8A       0.079200
     39 H17          6.1260     3.1150     0.6520 hc         1 O8A       0.079200
     40 H17A         7.8190     2.8240     0.0470 hc         1 O8A       0.079200
@<TRIPOS>BOND
     1     1     3 1   
     2     1     6 ar  
     3     1    15 ar  
     4     2    17 1   
     5     3    16 2   
     6     4    14 1   
     7     4    17 1   
     8     5    19 1   
     9     5    20 1   
    10     6     8 1   
    11     6    10 ar  
    12     7    17 1   
    13     8    16 1   
    14     8    19 1   
    15     9    23 2   
    16    10    13 ar  
    17    10    27 1   
    18    11    17 1   
    19    12    23 1   
    20    12    24 1   
    21    12    28 1   
    22    13    14 ar  
    23    13    29 1   
    24    14    15 ar  
    25    15    30 1   
    26    16    18 1   
    27    18    31 1   
    28    18    32 1   
    29    18    33 1   
    30    19    22 2   
    31    20    21 2   
    32    20    23 1   
    33    21    22 1   
    34    21    34 1   
    35    22    35 1   
    36    24    25 1   
    37    24    26 1   
    38    24    36 1   
    39    25    26 1   
    40    25    37 1   
    41    25    38 1   
    42    26    39 1   
    43    26    40 1   
@<TRIPOS>SUBSTRUCTURE
     1 O8A         1 TEMP              0 ****  ****    0 ROOT
