@<TRIPOS>MOLECULE
O8A
   40    43     1     0     0
SMALL
No Charge or Current Charge


@<TRIPOS>ATOM
      1 C1          -2.1470    -1.3860     0.0070 ca         1 O8A       0.080400
      2 F1          -6.2540     0.1360     0.2370 f          1 O8A      -0.109667
      3 N1          -1.9640    -2.7610     0.0220 nc         1 O8A      -0.563100
      4 O1          -4.4810     1.4840    -0.4070 os         1 O8A      -0.400100
      5 S1           2.1940    -0.0570    -0.2590 ss         1 O8A       0.225000
      6 C2          -0.9900    -0.7040     0.2810 ca         1 O8A      -0.064200
      7 F2          -5.7490     0.2310    -1.8900 f          1 O8A      -0.109667
      8 N2          -0.0040    -1.6360     0.4990 na         1 O8A      -0.076400
      9 O2           6.0810    -0.4250     0.6460 o          1 O8A      -0.579100
     10 C3          -0.9640     0.6970     0.3850 ca         1 O8A      -0.098000
     11 F3          -6.6780     1.9320    -0.9090 f          1 O8A      -0.109667
     12 N3           4.9800     1.0930    -0.6480 ns         1 O8A      -0.480900
     13 C4          -2.1590     1.4020     0.1390 ca         1 O8A      -0.088000
     14 C5          -3.3510     0.7150    -0.1810 ca         1 O8A       0.067100
     15 C6          -3.3470    -0.7030    -0.2400 ca         1 O8A      -0.035000
     16 C7          -0.6550    -2.8800     0.3210 cd         1 O8A       0.450800
     17 C8          -5.7750     0.9410    -0.7390 c3         1 O8A       0.512000
     18 C9           0.0050    -4.2330     0.3020 c3         1 O8A      -0.117400
     19 C10          1.3700    -1.3720     0.5580 cc         1 O8A      -0.124200
     20 C11          3.7200    -0.6430     0.4140 cc         1 O8A      -0.277600
     21 C12          3.5420    -1.7630     1.2060 cd         1 O8A      -0.066000
     22 C13          2.1860    -2.1910     1.2940 cd         1 O8A      -0.123000
     23 C14          5.0320    -0.0130     0.1700 c          1 O8A       0.642700
     24 C15          6.1220     1.8790    -1.0260 cx         1 O8A       0.045700
     25 C16          5.8670     3.2090    -1.6910 cx         1 O8A      -0.132400
     26 C17          6.3720     3.1600    -0.2690 cx         1 O8A      -0.132400
     27 H3          -0.0640     1.2360     0.6640 ha         1 O8A       0.132000
     28 HN3          4.0670     1.3500    -0.9970 hn         1 O8A       0.319500
     29 H4          -2.1670     2.4870     0.2050 ha         1 O8A       0.136000
     30 H6          -4.2390    -1.2780    -0.4630 ha         1 O8A       0.152000
     31 H9           0.9630    -4.2000    -0.2280 hc         1 O8A       0.065700
     32 H9A          0.1820    -4.5950     1.3210 hc         1 O8A       0.065700
     33 H9B         -0.6240    -4.9720    -0.2070 hc         1 O8A       0.065700
     34 H12          4.3560    -2.2690     1.7200 ha         1 O8A       0.163000
     35 H13          1.8630    -3.0370     1.8920 ha         1 O8A       0.153000
     36 H15          6.9860     1.2970    -1.3550 h1         1 O8A       0.091700
     37 H16          6.5620     3.5270    -2.4640 hc         1 O8A       0.079200
     38 H16A         4.8360     3.5150    -1.8520 hc         1 O8A       0.079200
     39 H17          5.6790     3.4260     0.5260 hc         1 O8A       0.079200
     40 H17A         7.4050     3.4430    -0.0860 hc         1 O8A       0.079200
@<TRIPOS>BOND
     1     1     3 1   
     2     1     6 ar  
     3     1    15 ar  
     4     2    17 1   
     5     3    16 2   
     6     4    14 1   
     7     4    17 1   
     8     5    19 1   
     9     5    20 1   
    10     6     8 1   
    11     6    10 ar  
    12     7    17 1   
    13     8    16 1   
    14     8    19 1   
    15     9    23 2   
    16    10    13 ar  
    17    10    27 1   
    18    11    17 1   
    19    12    23 1   
    20    12    24 1   
    21    12    28 1   
    22    13    14 ar  
    23    13    29 1   
    24    14    15 ar  
    25    15    30 1   
    26    16    18 1   
    27    18    31 1   
    28    18    32 1   
    29    18    33 1   
    30    19    22 2   
    31    20    21 2   
    32    20    23 1   
    33    21    22 1   
    34    21    34 1   
    35    22    35 1   
    36    24    25 1   
    37    24    26 1   
    38    24    36 1   
    39    25    26 1   
    40    25    37 1   
    41    25    38 1   
    42    26    39 1   
    43    26    40 1   
@<TRIPOS>SUBSTRUCTURE
     1 O8A         1 TEMP              0 ****  ****    0 ROOT
