@<TRIPOS>MOLECULE
O8B
   48    51     1     0     0
SMALL
No Charge or Current Charge


@<TRIPOS>ATOM
      1 C11         -6.3560    -2.9850    -0.3270 c3         1 O8B      -0.038800
      2 C10         -7.0190    -1.6200    -0.1740 ca         1 O8B      -0.092300
      3 C01         -8.4250    -1.5210    -0.1640 ca         1 O8B      -0.080000
      4 C03         -9.0470    -0.2700    -0.0230 ca         1 O8B      -0.139000
      5 C05         -8.2710     0.8920     0.1080 ca         1 O8B      -0.078000
      6 C07         -6.8690     0.8050     0.1000 ca         1 O8B      -0.198000
      7 C09         -6.2360    -0.4510    -0.0410 ca         1 O8B       0.132100
      8 O15         -4.8590    -0.5770    -0.0540 os         1 O8B      -0.312100
      9 C16         -3.9720     0.5600     0.0740 c3         1 O8B       0.074600
     10 C19         -2.4830     0.1520     0.0300 c          1 O8B       0.610100
     11 O22         -2.1140    -1.0130    -0.1000 o          1 O8B      -0.531100
     12 N20         -1.6140     1.2310     0.1510 ns         1 O8B      -0.156000
     13 C23         -0.1940     1.3240     0.1630 ca         1 O8B      -0.026000
     14 C24          0.6670     0.2050     0.0420 ca         1 O8B      -0.099000
     15 C28          0.3710     2.6130     0.3050 ca         1 O8B      -0.147000
     16 C26          1.7680     2.7920     0.3270 ca         1 O8B      -0.034000
     17 C30          2.5910     1.6650     0.2050 ca         1 O8B      -0.132000
     18 N34          3.9670     1.6370     0.2040 nc         1 O8B      -0.246400
     19 C31          2.0550     0.4080     0.0670 ca         1 O8B      -0.086000
     20 N32          3.0320    -0.5540    -0.0370 nc         1 O8B      -0.253400
     21 N33          4.1470     0.2680     0.0540 na         1 O8B       0.430000
     22 C35          5.4340    -0.2740    -0.0030 ca         1 O8B      -0.006200
     23 C36          5.8000    -1.3390     0.8480 ca         1 O8B      -0.087500
     24 C38          7.0950    -1.8840     0.7890 ca         1 O8B      -0.107000
     25 C40          8.0400    -1.3740    -0.1200 ca         1 O8B      -0.063300
     26 C45          9.4410    -1.9620    -0.1800 c3         1 O8B      -0.049800
     27 C41          7.6800    -0.3110    -0.9680 ca         1 O8B      -0.107000
     28 C43          6.3850     0.2360    -0.9120 ca         1 O8B      -0.087500
     29 H11         -5.7230    -3.0150    -1.2220 hc         1 O8B       0.047033
     30 H11A        -5.7250    -3.2140     0.5390 hc         1 O8B       0.047033
     31 H11B        -7.0950    -3.7900    -0.4190 hc         1 O8B       0.047033
     32 H01         -9.0380    -2.4140    -0.2650 ha         1 O8B       0.114000
     33 H03        -10.1330    -0.2010    -0.0170 ha         1 O8B       0.116000
     34 H05         -8.7560     1.8600     0.2170 ha         1 O8B       0.111000
     35 H07         -6.2940     1.7200     0.2040 ha         1 O8B       0.110000
     36 H16         -4.1430     1.2750    -0.7400 h1         1 O8B       0.048700
     37 H16A        -4.1450     1.0770     1.0270 h1         1 O8B       0.048700
     38 HN20        -2.0790     2.1240     0.2510 hn         1 O8B       0.148000
     39 H24          0.2880    -0.8060    -0.0680 ha         1 O8B       0.166000
     40 H28         -0.2760     3.4830     0.3990 ha         1 O8B       0.109000
     41 H26          2.1990     3.7860     0.4360 ha         1 O8B       0.133000
     42 H36          5.0800    -1.7430     1.5580 ha         1 O8B       0.144500
     43 H38          7.3630    -2.7030     1.4530 ha         1 O8B       0.119000
     44 H45          9.8670    -1.8810    -1.1870 hc         1 O8B       0.046033
     45 H45A        10.1130    -1.4390     0.5110 hc         1 O8B       0.046033
     46 H45B         9.4420    -3.0250     0.0920 hc         1 O8B       0.046033
     47 H41          8.4030     0.0940    -1.6730 ha         1 O8B       0.119000
     48 H43          6.1210     1.0560    -1.5770 ha         1 O8B       0.144500
@<TRIPOS>BOND
     1     1     2 1   
     2     1    29 1   
     3     1    30 1   
     4     1    31 1   
     5     2     3 ar  
     6     2     7 ar  
     7     3     4 ar  
     8     3    32 1   
     9     4     5 ar  
    10     4    33 1   
    11     5     6 ar  
    12     5    34 1   
    13     6     7 ar  
    14     6    35 1   
    15     7     8 1   
    16     8     9 1   
    17     9    10 1   
    18     9    36 1   
    19     9    37 1   
    20    10    11 2   
    21    10    12 1   
    22    12    13 1   
    23    12    38 1   
    24    13    14 ar  
    25    13    15 ar  
    26    14    19 ar  
    27    14    39 1   
    28    15    16 ar  
    29    15    40 1   
    30    16    17 ar  
    31    16    41 1   
    32    17    18 2   
    33    17    19 ar  
    34    18    21 1   
    35    19    20 2   
    36    20    21 1   
    37    21    22 1   
    38    22    23 ar  
    39    22    28 ar  
    40    23    24 ar  
    41    23    42 1   
    42    24    25 ar  
    43    24    43 1   
    44    25    26 1   
    45    25    27 ar  
    46    26    44 1   
    47    26    45 1   
    48    26    46 1   
    49    27    28 ar  
    50    27    47 1   
    51    28    48 1   
@<TRIPOS>SUBSTRUCTURE
     1 O8B         1 TEMP              0 ****  ****    0 ROOT
