@<TRIPOS>MOLECULE
O8B
   48    51     1     0     0
SMALL
bcc


@<TRIPOS>ATOM
      1 C11         -6.0460    -2.9230    -0.0380 c3         1 O8B      -0.038800
      2 C10         -6.7740    -1.6140     0.0240 ca         1 O8B      -0.092300
      3 C01         -8.1590    -1.5510     0.0710 ca         1 O8B      -0.098000
      4 C03         -8.8380    -0.3380     0.1240 ca         1 O8B      -0.157000
      5 C05         -8.1160     0.8410     0.1280 ca         1 O8B      -0.096000
      6 C07         -6.7260     0.8140     0.0810 ca         1 O8B      -0.216000
      7 C09         -6.0600    -0.4060     0.0310 ca         1 O8B       0.132100
      8 O15         -4.7170    -0.5330    -0.0120 os         1 O8B      -0.288900
      9 C16         -3.9320     0.6170    -0.0020 c3         1 O8B       0.051400
     10 C19         -2.4740     0.1900    -0.0290 c          1 O8B       0.677100
     11 O22         -2.1240    -0.9630    -0.0310 o          1 O8B      -0.531100
     12 N20         -1.6370     1.2660    -0.0490 ns         1 O8B      -0.482100
     13 C23         -0.2400     1.2920    -0.0530 ca         1 O8B       0.066600
     14 C24          0.5530     0.1720    -0.0390 ca         1 O8B      -0.117000
     15 C28          0.3350     2.6040    -0.0730 ca         1 O8B      -0.165000
     16 C26          1.6790     2.8240    -0.0760 ca         1 O8B      -0.052000
     17 C30          2.5080     1.6870    -0.0590 ca         1 O8B      -0.132000
     18 N34          3.8350     1.5650    -0.0540 nc         1 O8B      -0.246400
     19 C31          1.9440     0.3930    -0.0420 ca         1 O8B      -0.086000
     20 N32          2.9460    -0.4870    -0.0270 nc         1 O8B      -0.253400
     21 N33          4.0170     0.2700    -0.0350 na         1 O8B       0.430000
     22 C35          5.3140    -0.2900    -0.0210 ca         1 O8B      -0.006200
     23 C36          5.4690    -1.6700     0.0130 ca         1 O8B      -0.105500
     24 C38          6.7430    -2.2080     0.0280 ca         1 O8B      -0.125000
     25 C40          7.8770    -1.3990     0.0090 ca         1 O8B      -0.063300
     26 C45          9.2520    -1.9980    -0.0010 c3         1 O8B      -0.049800
     27 C41          7.6900    -0.0210    -0.0220 ca         1 O8B      -0.125000
     28 C43          6.4250     0.5400    -0.0380 ca         1 O8B      -0.105500
     29 H11         -5.4430    -3.0060    -0.9430 hc         1 O8B       0.047033
     30 H11A        -5.3630    -3.0470     0.8030 hc         1 O8B       0.047033
     31 H11B        -6.7480    -3.7550    -0.0260 hc         1 O8B       0.047033
     32 H01         -8.7230    -2.4760     0.0680 ha         1 O8B       0.132000
     33 H03         -9.9180    -0.3220     0.1620 ha         1 O8B       0.134000
     34 H05         -8.6240     1.7950     0.1680 ha         1 O8B       0.129000
     35 H07         -6.1840     1.7500     0.0840 ha         1 O8B       0.128000
     36 H16         -4.1360     1.2590    -0.8700 h1         1 O8B       0.048700
     37 H16A        -4.1080     1.2270     0.8940 h1         1 O8B       0.048700
     38 HN20        -2.0800     2.1710    -0.0340 hn         1 O8B       0.314500
     39 H24          0.1510    -0.8280    -0.0250 ha         1 O8B       0.184000
     40 H28         -0.3310     3.4590    -0.0860 ha         1 O8B       0.127000
     41 H26          2.0870     3.8250    -0.0920 ha         1 O8B       0.151000
     42 H36          4.6030    -2.3150     0.0300 ha         1 O8B       0.162500
     43 H38          6.8530    -3.2850     0.0570 ha         1 O8B       0.137000
     44 H45          9.5040    -2.3850    -0.9900 hc         1 O8B       0.046033
     45 H45A        10.0110    -1.2630     0.2640 hc         1 O8B       0.046033
     46 H45B         9.3340    -2.8290     0.7010 hc         1 O8B       0.046033
     47 H41          8.5510     0.6360    -0.0330 ha         1 O8B       0.137000
     48 H43          6.3020     1.6130    -0.0600 ha         1 O8B       0.162500
@<TRIPOS>BOND
     1     1     2 1   
     2     1    29 1   
     3     1    30 1   
     4     1    31 1   
     5     2     3 ar  
     6     2     7 ar  
     7     3     4 ar  
     8     3    32 1   
     9     4     5 ar  
    10     4    33 1   
    11     5     6 ar  
    12     5    34 1   
    13     6     7 ar  
    14     6    35 1   
    15     7     8 1   
    16     8     9 1   
    17     9    10 1   
    18     9    36 1   
    19     9    37 1   
    20    10    11 2   
    21    10    12 1   
    22    12    13 1   
    23    12    38 1   
    24    13    14 ar  
    25    13    15 ar  
    26    14    19 ar  
    27    14    39 1   
    28    15    16 ar  
    29    15    40 1   
    30    16    17 ar  
    31    16    41 1   
    32    17    18 2   
    33    17    19 ar  
    34    18    21 1   
    35    19    20 2   
    36    20    21 1   
    37    21    22 1   
    38    22    23 ar  
    39    22    28 ar  
    40    23    24 ar  
    41    23    42 1   
    42    24    25 ar  
    43    24    43 1   
    44    25    26 1   
    45    25    27 ar  
    46    26    44 1   
    47    26    45 1   
    48    26    46 1   
    49    27    28 ar  
    50    27    47 1   
    51    28    48 1   
@<TRIPOS>SUBSTRUCTURE
     1 O8B         1 TEMP              0 ****  ****    0 ROOT
