@<TRIPOS>MOLECULE
O8C
   17    17     1     0     0
SMALL
No Charge or Current Charge


@<TRIPOS>ATOM
      1 N            6.2060    -0.9960     9.0840 n1         1 O8C      -0.461000
      2 C5           7.3320    -0.6880     9.0590 cg         1 O8C       0.331000
      3 C4           8.7140    -0.2980     9.0360 ca         1 O8C      -0.065000
      4 C3           9.0880     1.0080     9.4070 ca         1 O8C      -0.031500
      5 C2          10.4420     1.3900     9.3840 ca         1 O8C      -0.183000
      6 C6           9.7020    -1.2210     8.6420 ca         1 O8C      -0.031500
      7 C7          11.0550    -0.8360     8.6210 ca         1 O8C      -0.183000
      8 C1          11.4320     0.4650     8.9890 ca         1 O8C       0.169100
      9 O           12.7740     0.7820     8.9480 os         1 O8C      -0.336100
     10 C           13.2660     2.0860     9.3050 c3         1 O8C       0.147900
     11 H1           8.3310     1.7280     9.7130 ha         1 O8C       0.125500
     12 H2          10.7000     2.4040     9.6760 ha         1 O8C       0.128500
     13 H3           9.4250    -2.2330     8.3530 ha         1 O8C       0.125500
     14 H4          11.8150    -1.5500     8.3160 ha         1 O8C       0.128500
     15 H5          14.3570     2.1220     9.2020 h1         1 O8C       0.045367
     16 H6          12.8370     2.8580     8.6530 h1         1 O8C       0.045367
     17 H7          13.0150     2.3260    10.3470 h1         1 O8C       0.045367
@<TRIPOS>BOND
     1     1     2 3   
     2     2     3 1   
     3     3     4 ar  
     4     3     6 ar  
     5     4     5 ar  
     6     4    11 1   
     7     5     8 ar  
     8     5    12 1   
     9     6     7 ar  
    10     6    13 1   
    11     7     8 ar  
    12     7    14 1   
    13     8     9 1   
    14     9    10 1   
    15    10    15 1   
    16    10    16 1   
    17    10    17 1   
@<TRIPOS>SUBSTRUCTURE
     1 O8C         1 TEMP              0 ****  ****    0 ROOT
