@<TRIPOS>MOLECULE
O8C
   17    17     1     0     0
SMALL
bcc


@<TRIPOS>ATOM
      1 N            6.2790    -0.9890     9.0950 n1         1 O8C      -0.371800
      2 C5           7.3860    -0.6650     9.0680 cg         1 O8C       0.241800
      3 C4           8.7540    -0.2750     9.0400 ca         1 O8C      -0.065000
      4 C3           9.1240     1.0180     9.4010 ca         1 O8C      -0.049500
      5 C2          10.4530     1.4020     9.3760 ca         1 O8C      -0.201000
      6 C6           9.7360    -1.1910     8.6490 ca         1 O8C      -0.049500
      7 C7          11.0590    -0.8140     8.6220 ca         1 O8C      -0.201000
      8 C1          11.4320     0.4860     8.9860 ca         1 O8C       0.169100
      9 O           12.7370     0.7590     8.9320 os         1 O8C      -0.312900
     10 C           13.1890     2.0480     9.3080 c3         1 O8C       0.124700
     11 H1           8.3700     1.7330     9.7040 ha         1 O8C       0.143500
     12 H2          10.7060     2.4140     9.6610 ha         1 O8C       0.146500
     13 H3           9.4590    -2.1980     8.3670 ha         1 O8C       0.143500
     14 H4          11.8210    -1.5210     8.3210 ha         1 O8C       0.146500
     15 H5          14.2700     2.0370     9.1970 h1         1 O8C       0.045367
     16 H6          12.7750     2.8260     8.6620 h1         1 O8C       0.045367
     17 H7          12.9410     2.2770    10.3470 h1         1 O8C       0.045367
@<TRIPOS>BOND
     1     1     2 3   
     2     2     3 1   
     3     3     4 ar  
     4     3     6 ar  
     5     4     5 ar  
     6     4    11 1   
     7     5     8 ar  
     8     5    12 1   
     9     6     7 ar  
    10     6    13 1   
    11     7     8 ar  
    12     7    14 1   
    13     8     9 1   
    14     9    10 1   
    15    10    15 1   
    16    10    16 1   
    17    10    17 1   
@<TRIPOS>SUBSTRUCTURE
     1 O8C         1 TEMP              0 ****  ****    0 ROOT
