@<TRIPOS>MOLECULE
O8D
   79    81     1     0     0
SMALL
abcg2


@<TRIPOS>ATOM
      1 C10        255.4030   261.4780   251.3530 c3         1 O8D       0.223500
      2 C13        257.4640   259.0680   249.7760 c3         1 O8D      -0.208700
      3 C17        259.5870   258.8460   246.9370 cc         1 O8D       0.172900
      4 C21        252.6920   256.5610   244.2940 ce         1 O8D      -0.263200
      5 C22        252.7630   257.1530   243.1050 c2         1 O8D      -0.181200
      6 C24        252.5730   257.2550   240.6210 c3         1 O8D      -0.042200
      7 C02        252.5020   257.2420   245.6010 c          1 O8D       0.602300
      8 N03        251.9250   258.4580   245.5880 ns         1 O8D      -0.510900
      9 C04        251.6300   259.1930   246.8000 c3         1 O8D       0.141200
     10 C05        252.7690   260.0190   247.3180 c2         1 O8D      -0.222200
     11 C06        253.1840   259.9800   248.5860 ce         1 O8D      -0.162000
     12 C07        254.1840   260.8580   249.1980 ce         1 O8D      -0.048200
     13 C08        254.8380   261.8860   248.3260 c3         1 O8D      -0.067900
     14 C09        254.4490   260.6960   250.5040 c2         1 O8D      -0.231200
     15 C11        256.6950   260.6740   251.6200 c3         1 O8D      -0.219400
     16 C12        257.4670   260.4710   250.3420 c          1 O8D       0.583100
     17 C14        258.0400   258.9920   248.4170 cc         1 O8D       0.449300
     18 N15        257.4050   259.0050   247.3020 nd         1 O8D      -0.648000
     19 C16        258.3800   258.9130   246.3310 cd         1 O8D       0.173500
     20 O18        259.3740   258.9070   248.2660 os         1 O8D      -0.249000
     21 O19        258.0360   261.3790   249.7860 o          1 O8D      -0.510100
     22 O20        254.7330   261.7470   252.5650 oh         1 O8D      -0.651000
     23 C23        253.0840   256.4410   241.8170 c3         1 O8D      -0.037500
     24 C25        251.1010   257.5000   240.7130 c2         1 O8D      -0.216200
     25 C27        254.5920   256.1420   241.7610 c3         1 O8D       0.182300
     26 O31        255.2890   257.3850   241.9680 os         1 O8D      -0.462100
     27 C32        255.9130   257.6210   243.1150 c          1 O8D       0.583100
     28 C33        256.4240   259.0520   243.1400 c5         1 O8D       0.056700
     29 N34        256.9680   259.3710   244.4430 n          1 O8D      -0.395800
     30 C35        258.0920   258.7830   244.8870 c          1 O8D       0.566600
     31 O36        258.8410   258.1400   244.1620 o          1 O8D      -0.597100
     32 C37        256.2180   260.4360   245.0980 c5         1 O8D       0.113000
     33 C38        255.6330   261.1920   243.9170 c5         1 O8D      -0.104400
     34 C39        255.2810   260.0700   242.9500 c5         1 O8D      -0.078400
     35 O40        256.0400   256.8340   244.0120 o          1 O8D      -0.447000
     36 H1         255.6890   262.4130   250.8590 h1         1 O8D       0.049700
     37 H2         256.4330   258.7100   249.7440 hc         1 O8D       0.099200
     38 H3         257.9950   258.4160   250.4780 hc         1 O8D       0.099200
     39 H4         260.6030   258.7640   246.5900 h4         1 O8D       0.079100
     40 H5         252.8520   255.4910   244.3760 ha         1 O8D       0.202000
     41 H6         252.6320   258.2290   243.0210 ha         1 O8D       0.169000
     42 H7         252.7860   256.7140   239.6960 hc         1 O8D       0.055200
     43 H8         253.1090   258.2060   240.5630 hc         1 O8D       0.055200
     44 H9         251.1240   259.6080   240.8130 ha         1 O8D       0.161500
     45 H10        249.4600   258.8130   240.8750 ha         1 O8D       0.161500
     46 H12        251.5500   258.8160   244.7260 hn         1 O8D       0.311500
     47 H13        250.7950   259.8560   246.5640 h1         1 O8D       0.053200
     48 H14        251.2790   258.5080   247.5730 h1         1 O8D       0.053200
     49 H15        253.2050   260.7180   246.6100 ha         1 O8D       0.168000
     50 H16        252.7200   259.2590   249.2550 ha         1 O8D       0.178000
     51 H17        255.4530   262.5890   248.8800 hc         1 O8D       0.047700
     52 H18        255.4840   261.3970   247.5960 hc         1 O8D       0.047700
     53 H19        254.0980   262.4620   247.7680 hc         1 O8D       0.047700
     54 H20        253.9370   259.8950   251.0330 ha         1 O8D       0.185000
     55 H21        256.4420   259.7190   252.0850 hc         1 O8D       0.070700
     56 H22        257.3260   261.2350   252.3150 hc         1 O8D       0.070700
     57 H23        255.2980   262.3080   253.1070 ho         1 O8D       0.445000
     58 H24        252.5760   255.4710   241.8260 hc         1 O8D       0.066700
     59 H25        250.4680   256.6160   240.7140 ha         1 O8D       0.168000
     60 H26        254.8250   255.4550   242.5790 h1         1 O8D       0.076700
     61 H27        253.2780   254.4240   239.9430 hc         1 O8D       0.039033
     62 H28        254.7520   253.7540   239.2670 hc         1 O8D       0.039033
     63 H29        254.3940   253.5360   240.9780 hc         1 O8D       0.039033
     64 H30        257.1890   256.1230   240.7420 hc         1 O8D       0.039033
     65 H31        256.8070   254.5100   241.3500 hc         1 O8D       0.039033
     66 H32        256.9540   254.7970   239.6180 hc         1 O8D       0.039033
     67 H33        257.1770   259.1700   242.3540 h1         1 O8D       0.093700
     68 H34        256.8710   261.0510   245.7130 h1         1 O8D       0.065200
     69 H35        255.4320   260.0270   245.7380 h1         1 O8D       0.065200
     70 H36        256.3830   261.8570   243.4840 hc         1 O8D       0.054700
     71 H37        254.7670   261.7910   244.1960 hc         1 O8D       0.054700
     72 H38        255.1950   260.3920   241.9140 hc         1 O8D       0.057700
     73 H39        254.3240   259.6360   243.2430 hc         1 O8D       0.057700
     74 C28        255.1010   255.5240   240.4610 c3         1 O8D      -0.065700
     75 O01        252.8520   256.6910   246.6370 o          1 O8D      -0.586100
     76 C29        254.3330   254.2420   240.1480 c3         1 O8D      -0.091100
     77 C26        250.5340   258.6980   240.8060 c2         1 O8D      -0.324000
     78 C30        256.5970   255.2280   240.5540 c3         1 O8D      -0.091100
     79 H11        254.9450   256.2340   239.6420 hc         1 O8D       0.057700
@<TRIPOS>BOND
     1     1    14 1   
     2     1    15 1   
     3     1    22 1   
     4     1    36 1   
     5     2    16 1   
     6     2    17 1   
     7     2    37 1   
     8     2    38 1   
     9     3    19 2   
    10     3    20 1   
    11     3    39 1   
    12     4     5 2   
    13     4     7 1   
    14     4    40 1   
    15     5    23 1   
    16     5    41 1   
    17     6    23 1   
    18     6    24 1   
    19     6    42 1   
    20     6    43 1   
    21     7     8 1   
    22     7    75 2   
    23     8     9 1   
    24     8    46 1   
    25     9    10 1   
    26     9    47 1   
    27     9    48 1   
    28    10    11 2   
    29    10    49 1   
    30    11    12 1   
    31    11    50 1   
    32    12    13 1   
    33    12    14 2   
    34    13    51 1   
    35    13    52 1   
    36    13    53 1   
    37    14    54 1   
    38    15    16 1   
    39    15    55 1   
    40    15    56 1   
    41    16    21 2   
    42    17    18 2   
    43    17    20 1   
    44    18    19 1   
    45    19    30 1   
    46    22    57 1   
    47    23    25 1   
    48    23    58 1   
    49    24    59 1   
    50    24    77 2   
    51    25    26 1   
    52    25    60 1   
    53    25    74 1   
    54    26    27 1   
    55    27    28 1   
    56    27    35 2   
    57    28    29 1   
    58    28    34 1   
    59    28    67 1   
    60    29    30 1   
    61    29    32 1   
    62    30    31 2   
    63    32    33 1   
    64    32    68 1   
    65    32    69 1   
    66    33    34 1   
    67    33    70 1   
    68    33    71 1   
    69    34    72 1   
    70    34    73 1   
    71    44    77 1   
    72    45    77 1   
    73    61    76 1   
    74    62    76 1   
    75    63    76 1   
    76    64    78 1   
    77    65    78 1   
    78    66    78 1   
    79    74    76 1   
    80    74    78 1   
    81    74    79 1   
@<TRIPOS>SUBSTRUCTURE
     1 O8D         1 TEMP              0 ****  ****    0 ROOT
