@<TRIPOS>MOLECULE
O8D
   79    81     1     0     0
SMALL
No Charge or Current Charge


@<TRIPOS>ATOM
      1 C10        255.7130   261.9800   250.0390 c3         1 O8D       0.223500
      2 C13        258.2990   259.5960   250.4910 c3         1 O8D      -0.208700
      3 C17        259.1470   257.6060   247.6700 cc         1 O8D       0.172900
      4 C21        252.2050   255.9460   243.9340 ce         1 O8D      -0.263200
      5 C22        252.6430   256.9080   243.0820 c2         1 O8D      -0.181200
      6 C24        252.7200   257.8860   240.7490 c3         1 O8D      -0.042200
      7 C02        251.8160   256.1410   245.3590 c          1 O8D       0.602300
      8 N03        251.9780   257.4120   245.8550 ns         1 O8D      -0.510900
      9 C04        251.6930   257.8060   247.2280 c3         1 O8D       0.141200
     10 C05        252.3270   259.1470   247.5130 c2         1 O8D      -0.222200
     11 C06        253.4340   259.3460   248.2670 ce         1 O8D      -0.162000
     12 C07        254.0410   260.6540   248.5840 ce         1 O8D      -0.048200
     13 C08        253.5960   261.8560   247.7570 c3         1 O8D      -0.067900
     14 C09        254.9860   260.7390   249.5530 c2         1 O8D      -0.231200
     15 C11        256.8280   261.6860   251.0620 c3         1 O8D      -0.219400
     16 C12        258.0770   261.0990   250.3940 c          1 O8D       0.583100
     17 C14        258.4040   258.9530   249.1530 cc         1 O8D       0.449300
     18 N15        257.7080   259.2680   248.0790 nd         1 O8D      -0.648000
     19 C16        258.1950   258.4090   247.0930 cd         1 O8D       0.173500
     20 O18        259.2940   257.9410   248.9800 os         1 O8D      -0.249000
     21 O19        258.9060   261.8300   249.8670 o          1 O8D      -0.510100
     22 O20        254.7610   262.8310   250.6730 oh         1 O8D      -0.651000
     23 C23        253.0960   256.6750   241.6500 c3         1 O8D      -0.037500
     24 C25        251.2500   258.2480   240.8330 c2         1 O8D      -0.216200
     25 C27        254.6170   256.2940   241.5950 c3         1 O8D       0.182300
     26 O31        255.3800   257.4270   242.0720 os         1 O8D      -0.462100
     27 C32        255.6880   257.5300   243.4090 c          1 O8D       0.583100
     28 C33        256.3480   258.9150   243.6820 c5         1 O8D       0.056700
     29 N34        256.9030   259.1250   245.0520 n          1 O8D      -0.395800
     30 C35        257.8510   258.2390   245.6310 c          1 O8D       0.566600
     31 O36        258.3710   257.3680   244.9390 o          1 O8D      -0.597100
     32 C37        256.3940   260.3610   245.6870 c5         1 O8D       0.113000
     33 C38        255.8470   261.1410   244.4660 c5         1 O8D      -0.104400
     34 C39        255.2370   260.0060   243.6130 c5         1 O8D      -0.078400
     35 O40        255.4640   256.6550   244.2370 o          1 O8D      -0.447000
     36 H1         256.1600   262.4980   249.1770 h1         1 O8D       0.049700
     37 H2         257.4930   259.1220   251.0580 hc         1 O8D       0.099200
     38 H3         259.2390   259.4350   251.0280 hc         1 O8D       0.099200
     39 H4         259.7630   256.8100   247.2760 h4         1 O8D       0.079100
     40 H5         252.1300   254.9130   243.5980 ha         1 O8D       0.202000
     41 H6         252.7160   257.9490   243.3940 ha         1 O8D       0.169000
     42 H7         252.9670   257.6570   239.7060 hc         1 O8D       0.055200
     43 H8         253.3370   258.7500   241.0270 hc         1 O8D       0.055200
     44 H9         251.4230   260.2290   241.5980 ha         1 O8D       0.161500
     45 H10        249.6940   259.6200   241.3020 ha         1 O8D       0.161500
     46 H12        252.3540   258.1050   245.2250 hn         1 O8D       0.311500
     47 H13        250.6050   257.8640   247.3640 h1         1 O8D       0.053200
     48 H14        252.0880   257.0440   247.9140 h1         1 O8D       0.053200
     49 H15        251.7830   259.9820   247.0720 ha         1 O8D       0.168000
     50 H16        253.9260   258.4790   248.7120 ha         1 O8D       0.178000
     51 H17        254.3320   262.6680   247.7670 hc         1 O8D       0.047700
     52 H18        253.4470   261.5900   246.7050 hc         1 O8D       0.047700
     53 H19        252.6510   262.2640   248.1360 hc         1 O8D       0.047700
     54 H20        255.2630   259.8350   250.0940 ha         1 O8D       0.185000
     55 H21        256.4300   260.9920   251.8110 hc         1 O8D       0.070700
     56 H22        257.1220   262.6260   251.5450 hc         1 O8D       0.070700
     57 H23        255.2240   263.6690   250.8870 ho         1 O8D       0.445000
     58 H24        252.5310   255.8150   241.2730 hc         1 O8D       0.066700
     59 H25        250.5700   257.4570   240.5060 ha         1 O8D       0.168000
     60 H26        254.7720   255.4140   242.2360 h1         1 O8D       0.076700
     61 H27        253.3720   255.0880   239.2660 hc         1 O8D       0.039033
     62 H28        254.8730   254.5090   238.5430 hc         1 O8D       0.039033
     63 H29        254.3660   253.8910   240.1300 hc         1 O8D       0.039033
     64 H30        257.2860   256.3950   240.6470 hc         1 O8D       0.039033
     65 H31        256.8510   254.6920   240.9090 hc         1 O8D       0.039033
     66 H32        257.0800   255.3160   239.2610 hc         1 O8D       0.039033
     67 H33        257.1210   259.0830   242.9200 h1         1 O8D       0.093700
     68 H34        257.1790   260.9350   246.1960 h1         1 O8D       0.065200
     69 H35        255.6000   260.1250   246.4070 h1         1 O8D       0.065200
     70 H36        256.6580   261.6470   243.9270 hc         1 O8D       0.054700
     71 H37        255.1140   261.9040   244.7490 hc         1 O8D       0.054700
     72 H38        255.0140   260.3160   242.5860 hc         1 O8D       0.057700
     73 H39        254.2990   259.6570   244.0600 hc         1 O8D       0.057700
     74 C28        255.1860   255.9260   240.1860 c3         1 O8D      -0.065700
     75 O01        251.3910   255.2240   246.0450 o          1 O8D      -0.586100
     76 C29        254.4000   254.7840   239.4940 c3         1 O8D      -0.091100
     77 C26        250.7660   259.4230   241.2650 c2         1 O8D      -0.324000
     78 C30        256.6910   255.5600   240.2580 c3         1 O8D      -0.091100
     79 H11        255.1100   256.8120   239.5440 hc         1 O8D       0.057700
@<TRIPOS>BOND
     1     1    14 1   
     2     1    15 1   
     3     1    22 1   
     4     1    36 1   
     5     2    16 1   
     6     2    17 1   
     7     2    37 1   
     8     2    38 1   
     9     3    19 2   
    10     3    20 1   
    11     3    39 1   
    12     4     5 2   
    13     4     7 1   
    14     4    40 1   
    15     5    23 1   
    16     5    41 1   
    17     6    23 1   
    18     6    24 1   
    19     6    42 1   
    20     6    43 1   
    21     7     8 1   
    22     7    75 2   
    23     8     9 1   
    24     8    46 1   
    25     9    10 1   
    26     9    47 1   
    27     9    48 1   
    28    10    11 2   
    29    10    49 1   
    30    11    12 1   
    31    11    50 1   
    32    12    13 1   
    33    12    14 2   
    34    13    51 1   
    35    13    52 1   
    36    13    53 1   
    37    14    54 1   
    38    15    16 1   
    39    15    55 1   
    40    15    56 1   
    41    16    21 2   
    42    17    18 2   
    43    17    20 1   
    44    18    19 1   
    45    19    30 1   
    46    22    57 1   
    47    23    25 1   
    48    23    58 1   
    49    24    59 1   
    50    24    77 2   
    51    25    26 1   
    52    25    60 1   
    53    25    74 1   
    54    26    27 1   
    55    27    28 1   
    56    27    35 2   
    57    28    29 1   
    58    28    34 1   
    59    28    67 1   
    60    29    30 1   
    61    29    32 1   
    62    30    31 2   
    63    32    33 1   
    64    32    68 1   
    65    32    69 1   
    66    33    34 1   
    67    33    70 1   
    68    33    71 1   
    69    34    72 1   
    70    34    73 1   
    71    44    77 1   
    72    45    77 1   
    73    61    76 1   
    74    62    76 1   
    75    63    76 1   
    76    64    78 1   
    77    65    78 1   
    78    66    78 1   
    79    74    76 1   
    80    74    78 1   
    81    74    79 1   
@<TRIPOS>SUBSTRUCTURE
     1 O8D         1 TEMP              0 ****  ****    0 ROOT
