@<TRIPOS>MOLECULE
O8F
   59    62     1     0     0
SMALL
No Charge or Current Charge


@<TRIPOS>ATOM
      1 C18         25.4330   -43.0740    30.8630 ca         1 O8F       0.180100
      2 C17         24.5070   -43.5030    31.8240 ca         1 O8F      -0.150000
      3 C16         23.2330   -43.9440    31.4250 ca         1 O8F      -0.001000
      4 C15         22.8870   -43.9580    30.0570 ca         1 O8F      -0.274500
      5 C14         20.2700   -42.9880    29.6120 ca         1 O8F      -0.255500
      6 C13         19.6270   -42.6050    30.8070 ca         1 O8F      -0.021500
      7 C12         18.8810   -41.4150    30.8550 ca         1 O8F      -0.112000
      8 C11         18.7710   -40.5940    29.7160 ca         1 O8F      -0.038300
      9 C10         17.9460   -39.3150    29.7640 c3         1 O8F       0.221100
     10 C9          14.1840   -39.0670    28.1940 ca         1 O8F      -0.255500
     11 C8          15.2770   -42.2450    29.3650 ca         1 O8F      -0.094000
     12 O8          15.2770   -38.1750    30.4810 o          1 O8F      -0.540500
     13 C7          15.8910   -43.0180    30.3670 ca         1 O8F      -0.165000
     14 O7          21.3210   -44.9400    28.1480 o          1 O8F      -0.529500
     15 C1          12.6900   -40.9640    27.9230 ca         1 O8F      -0.137000
     16 C5          14.7740   -41.6790    32.0660 ca         1 O8F       0.121100
     17 C6          15.6420   -42.7340    31.7200 ca         1 O8F       0.052100
     18 O6          20.7300   -45.4110    30.5950 o          1 O8F      -0.529500
     19 C4          14.1630   -40.9080    31.0650 ca         1 O8F      -0.098000
     20 O4          26.6700   -42.6460    31.2440 oh         1 O8F      -0.523100
     21 C3          14.4190   -41.1680    29.6970 cp         1 O8F      -0.098000
     22 O3          16.0450   -37.1450    28.2640 o          1 O8F      -0.540500
     23 C2          13.7690   -40.3690    28.6160 cp         1 O8F       0.071000
     24 S           15.5770   -38.2880    29.0530 sy         1 O8F       1.116600
     25 O1          14.5280   -41.4190    33.3830 oh         1 O8F      -0.523100
     26 C23         13.5350   -38.4000    27.1310 ca         1 O8F      -0.072000
     27 C24         12.4600   -39.0180    26.4700 ca         1 O8F       0.031100
     28 O9          11.8160   -38.3830    25.4350 oh         1 O8F      -0.558100
     29 C           12.0420   -40.3010    26.8720 ca         1 O8F       0.177100
     30 O           11.0010   -40.8960    26.2230 oh         1 O8F      -0.522100
     31 N           16.7510   -39.4610    28.9250 n7         1 O8F      -0.840300
     32 C22         19.4200   -40.9770    28.5260 ca         1 O8F      -0.112000
     33 C21         20.1680   -42.1660    28.4720 ca         1 O8F      -0.021500
     34 S1          21.2410   -44.5100    29.5520 sy         1 O8F       1.030000
     35 C20         23.8220   -43.5200    29.0910 ca         1 O8F      -0.068000
     36 C19         25.0970   -43.0790    29.4940 ca         1 O8F       0.027100
     37 H13         24.7740   -43.4930    32.8770 ha         1 O8F       0.138000
     38 H12         22.5210   -44.2700    32.1820 ha         1 O8F       0.140000
     39 H11         19.7020   -43.2230    31.7000 ha         1 O8F       0.134000
     40 H10         18.3830   -41.1360    31.7810 ha         1 O8F       0.125500
     41 H8          18.5630   -38.4740    29.4190 h1         1 O8F       0.069200
     42 H9          17.6760   -39.1110    30.8100 h1         1 O8F       0.069200
     43 H6          15.4690   -42.4780    28.3190 ha         1 O8F       0.130000
     44 H5          16.5540   -43.8330    30.0850 ha         1 O8F       0.126000
     45 H1          12.3540   -41.9570    28.2100 ha         1 O8F       0.141000
     46 H15         25.6220   -42.7250    27.6630 ho         1 O8F       0.483000
     47 H2          13.4910   -40.1020    31.3470 ha         1 O8F       0.161000
     48 H14         27.1310   -42.4000    30.4110 ho         1 O8F       0.492000
     49 H4          16.7520   -44.2060    32.2810 ho         1 O8F       0.482000
     50 H3          15.0520   -42.0810    33.8890 ho         1 O8F       0.483000
     51 H19         13.8660   -37.4100    26.8230 ha         1 O8F       0.147000
     52 H20         12.2320   -37.5040    25.2820 ho         1 O8F       0.484000
     53 H           10.7160   -40.2530    25.5360 ho         1 O8F       0.492000
     54 H7          16.2370   -40.2810    29.2400 hn         1 O8F       0.476000
     55 H18         19.3380   -40.3520    27.6400 ha         1 O8F       0.125500
     56 H17         20.6630   -42.4410    27.5420 ha         1 O8F       0.134000
     57 H16         23.5560   -43.5210    28.0350 ha         1 O8F       0.134000
     58 O5          26.0140   -42.6540    28.5630 oh         1 O8F      -0.559100
     59 O2          16.2310   -43.4860    32.7010 oh         1 O8F      -0.555100
@<TRIPOS>BOND
     1     1     2 ar  
     2     1    20 1   
     3     1    36 ar  
     4     2     3 ar  
     5     2    37 1   
     6     3     4 ar  
     7     3    38 1   
     8     4    34 1   
     9     4    35 ar  
    10     5     6 ar  
    11     5    33 ar  
    12     5    34 1   
    13     6     7 ar  
    14     6    39 1   
    15     7     8 ar  
    16     7    40 1   
    17     8     9 1   
    18     8    32 ar  
    19     9    31 1   
    20     9    41 1   
    21     9    42 1   
    22    10    23 ar  
    23    10    24 1   
    24    10    26 ar  
    25    11    13 ar  
    26    11    21 ar  
    27    11    43 1   
    28    12    24 2   
    29    13    17 ar  
    30    13    44 1   
    31    14    34 2   
    32    15    23 ar  
    33    15    29 ar  
    34    15    45 1   
    35    16    17 ar  
    36    16    19 ar  
    37    16    25 1   
    38    17    59 1   
    39    18    34 2   
    40    19    21 ar  
    41    19    47 1   
    42    20    48 1   
    43    21    23 1   
    44    22    24 2   
    45    24    31 1   
    46    25    50 1   
    47    26    27 ar  
    48    26    51 1   
    49    27    28 1   
    50    27    29 ar  
    51    28    52 1   
    52    29    30 1   
    53    30    53 1   
    54    31    54 1   
    55    32    33 ar  
    56    32    55 1   
    57    33    56 1   
    58    35    36 ar  
    59    35    57 1   
    60    36    58 1   
    61    46    58 1   
    62    49    59 1   
@<TRIPOS>SUBSTRUCTURE
     1 O8F         1 TEMP              0 ****  ****    0 ROOT
