@<TRIPOS>MOLECULE
O8F
   59    62     1     0     0
SMALL
abcg2


@<TRIPOS>ATOM
      1 C18         25.2200   -43.1840    31.1610 ca         1 O8F       0.180100
      2 C17         24.2200   -43.8820    31.8220 ca         1 O8F      -0.150000
      3 C16         23.0630   -44.2640    31.1600 ca         1 O8F      -0.001000
      4 C15         22.9190   -43.9400    29.8220 ca         1 O8F      -0.274500
      5 C14         20.4330   -42.9120    29.1450 ca         1 O8F      -0.255500
      6 C13         19.6670   -42.7490    30.2900 ca         1 O8F      -0.021500
      7 C12         18.9170   -41.5940    30.4360 ca         1 O8F      -0.112000
      8 C11         18.9240   -40.6140    29.4490 ca         1 O8F      -0.038300
      9 C10         18.0490   -39.4030    29.5870 c3         1 O8F       0.221100
     10 C9          14.2420   -39.2530    28.2250 ca         1 O8F      -0.255500
     11 C8          14.8710   -42.4160    29.6310 ca         1 O8F      -0.094000
     12 O8          15.4340   -37.9700    30.2210 o          1 O8F      -0.540500
     13 C7          15.4800   -43.1430    30.6460 ca         1 O8F      -0.165000
     14 O7          21.7380   -44.5350    27.5530 o          1 O8F      -0.529500
     15 C1          12.5330   -40.9160    28.2080 ca         1 O8F      -0.137000
     16 C5          14.9190   -41.4110    32.2240 ca         1 O8F       0.121100
     17 C6          15.5180   -42.6470    31.9380 ca         1 O8F       0.052100
     18 O6          20.7790   -45.4550    29.6930 o          1 O8F      -0.529500
     19 C4          14.3240   -40.6850    31.2060 ca         1 O8F      -0.098000
     20 O4          26.3220   -42.8350    31.8360 oh         1 O8F      -0.523100
     21 C3          14.3060   -41.1730    29.9000 cp         1 O8F      -0.098000
     22 O3          16.1480   -37.4550    27.9080 o          1 O8F      -0.540500
     23 C2          13.6910   -40.4070    28.7880 cp         1 O8F       0.071000
     24 S           15.6900   -38.4500    28.8680 sy         1 O8F       1.116600
     25 O1          14.9110   -40.9030    33.4720 oh         1 O8F      -0.523100
     26 C23         13.6480   -38.6320    27.1300 ca         1 O8F      -0.072000
     27 C24         12.4910   -39.1450    26.5800 ca         1 O8F       0.031100
     28 O9          11.8460   -38.6090    25.5250 oh         1 O8F      -0.558100
     29 C           11.9220   -40.3050    27.1240 ca         1 O8F       0.177100
     30 O           10.8050   -40.8450    26.6220 oh         1 O8F      -0.522100
     31 N           16.8120   -39.6790    28.8440 n7         1 O8F      -0.840300
     32 C22         19.6900   -40.8030    28.3040 ca         1 O8F      -0.112000
     33 C21         20.4530   -41.9480    28.1470 ca         1 O8F      -0.021500
     34 S1          21.4320   -44.3680    28.9710 sy         1 O8F       1.030000
     35 C20         23.9090   -43.2420    29.1350 ca         1 O8F      -0.068000
     36 C19         25.0580   -42.8620    29.8000 ca         1 O8F       0.027100
     37 H13         24.3550   -44.1280    32.8680 ha         1 O8F       0.138000
     38 H12         22.2950   -44.8050    31.6940 ha         1 O8F       0.140000
     39 H11         19.6490   -43.5040    31.0660 ha         1 O8F       0.134000
     40 H10         18.3190   -41.4580    31.3280 ha         1 O8F       0.125500
     41 H8          18.5370   -38.5300    29.1510 h1         1 O8F       0.069200
     42 H9          17.8610   -39.1950    30.6440 h1         1 O8F       0.069200
     43 H6          14.8590   -42.8110    28.6240 ha         1 O8F       0.130000
     44 H5          15.9380   -44.1000    30.4230 ha         1 O8F       0.126000
     45 H1          12.0880   -41.8160    28.6140 ha         1 O8F       0.141000
     46 H15         25.8870   -41.9520    28.3180 ho         1 O8F       0.483000
     47 H2          13.8650   -39.7350    31.4430 ha         1 O8F       0.161000
     48 H14         26.9380   -42.3500    31.2720 ho         1 O8F       0.492000
     49 H4          16.4830   -44.1210    32.7050 ho         1 O8F       0.482000
     50 H3          15.3360   -41.5090    34.0900 ho         1 O8F       0.483000
     51 H19         14.0910   -37.7450    26.6930 ha         1 O8F       0.147000
     52 H20         12.2850   -37.8100    25.2090 ho         1 O8F       0.484000
     53 H           10.4750   -40.3270    25.8770 ho         1 O8F       0.492000
     54 H7          16.3920   -40.5510    29.1620 hn         1 O8F       0.476000
     55 H18         19.6950   -40.0490    27.5270 ha         1 O8F       0.125500
     56 H17         21.0510   -42.0800    27.2550 ha         1 O8F       0.134000
     57 H16         23.7930   -42.9950    28.0860 ha         1 O8F       0.134000
     58 O5          26.0800   -42.1910    29.2330 oh         1 O8F      -0.559100
     59 O2          16.1070   -43.2760    32.9770 oh         1 O8F      -0.555100
@<TRIPOS>BOND
     1     1     2 ar  
     2     1    20 1   
     3     1    36 ar  
     4     2     3 ar  
     5     2    37 1   
     6     3     4 ar  
     7     3    38 1   
     8     4    34 1   
     9     4    35 ar  
    10     5     6 ar  
    11     5    33 ar  
    12     5    34 1   
    13     6     7 ar  
    14     6    39 1   
    15     7     8 ar  
    16     7    40 1   
    17     8     9 1   
    18     8    32 ar  
    19     9    31 1   
    20     9    41 1   
    21     9    42 1   
    22    10    23 ar  
    23    10    24 1   
    24    10    26 ar  
    25    11    13 ar  
    26    11    21 ar  
    27    11    43 1   
    28    12    24 2   
    29    13    17 ar  
    30    13    44 1   
    31    14    34 2   
    32    15    23 ar  
    33    15    29 ar  
    34    15    45 1   
    35    16    17 ar  
    36    16    19 ar  
    37    16    25 1   
    38    17    59 1   
    39    18    34 2   
    40    19    21 ar  
    41    19    47 1   
    42    20    48 1   
    43    21    23 1   
    44    22    24 2   
    45    24    31 1   
    46    25    50 1   
    47    26    27 ar  
    48    26    51 1   
    49    27    28 1   
    50    27    29 ar  
    51    28    52 1   
    52    29    30 1   
    53    30    53 1   
    54    31    54 1   
    55    32    33 ar  
    56    32    55 1   
    57    33    56 1   
    58    35    36 ar  
    59    35    57 1   
    60    36    58 1   
    61    46    58 1   
    62    49    59 1   
@<TRIPOS>SUBSTRUCTURE
     1 O8F         1 TEMP              0 ****  ****    0 ROOT
