@<TRIPOS>MOLECULE
O8G
   36    38     1     0     0
SMALL
No Charge or Current Charge


@<TRIPOS>ATOM
      1 C1          -0.9440    -1.1550     1.1420 c6         1 O8G      -0.096400
      2 C4          -2.2480    -1.9410     0.8670 c6         1 O8G       0.096000
      3 N7          -3.0780    -1.2350    -0.1460 n          1 O8G      -0.409800
      4 C8          -2.3690    -1.0480    -1.4430 c6         1 O8G       0.096000
      5 C11         -1.0700    -0.2330    -1.2350 c6         1 O8G      -0.096400
      6 C14         -0.1520    -0.9070    -0.1740 c6         1 O8G      -0.098000
      7 C16         -4.3130    -0.6170     0.1850 c          1 O8G       0.586100
      8 O17         -4.7470    -0.6870     1.3320 o          1 O8G      -0.595100
      9 C18         -5.1000     0.1170    -0.9420 c3         1 O8G       0.078800
     10 N21          2.3250    -0.4910    -0.1440 nc         1 O8G      -0.723000
     11 C22          1.0960    -0.0830     0.0790 cd         1 O8G       0.492300
     12 O23          1.0300     1.1860     0.5720 os         1 O8G      -0.088700
     13 N24          2.3630     1.6360     0.6760 nd         1 O8G      -0.366300
     14 C25          3.0500     0.5960     0.2380 cc         1 O8G       0.643500
     15 C26          4.4780     0.5470     0.1440 cc         1 O8G      -0.297500
     16 C27          5.3100     1.5830     0.5000 cd         1 O8G      -0.080000
     17 C29          6.6830     1.2730     0.3080 cd         1 O8G      -0.141000
     18 C31          6.8970     0.0110    -0.1910 cc         1 O8G      -0.248000
     19 S33          5.3770    -0.8460    -0.4420 ss         1 O8G       0.293000
     20 N34         -6.4250     0.6450    -0.5340 n2         1 O8G      -0.429200
     21 N36         -6.4250     1.7290     0.0750 n1         1 O8G       0.245000
     22 N37         -6.5040     2.6560     0.7300 n1         1 O8G      -0.046000
     23 H1          -1.1940    -0.1970     1.6200 hc         1 O8G       0.065200
     24 H1A         -0.3220    -1.7090     1.8590 hc         1 O8G       0.065200
     25 H4          -2.0000    -2.9440     0.4910 h1         1 O8G       0.062200
     26 H4A         -2.7990    -2.0790     1.8080 h1         1 O8G       0.062200
     27 H8          -2.1160    -2.0370    -1.8530 h1         1 O8G       0.062200
     28 H8A         -2.9970    -0.5490    -2.1920 h1         1 O8G       0.062200
     29 H11         -0.5370    -0.1390    -2.1910 hc         1 O8G       0.065200
     30 H11A        -1.3300     0.7870    -0.9190 hc         1 O8G       0.065200
     31 H14          0.1590    -1.8840    -0.5700 hc         1 O8G       0.085700
     32 H18         -4.4570     0.9240    -1.3140 h1         1 O8G       0.075200
     33 H18A        -5.2240    -0.6020    -1.7610 h1         1 O8G       0.075200
     34 H27          4.9630     2.5380     0.8880 ha         1 O8G       0.147000
     35 H29          7.4860     1.9690     0.5350 ha         1 O8G       0.138000
     36 H31          7.8310    -0.4820    -0.4310 h4         1 O8G       0.152000
@<TRIPOS>BOND
     1     1     2 1   
     2     1     6 1   
     3     1    23 1   
     4     1    24 1   
     5     2     3 1   
     6     2    25 1   
     7     2    26 1   
     8     3     4 1   
     9     3     7 1   
    10     4     5 1   
    11     4    27 1   
    12     4    28 1   
    13     5     6 1   
    14     5    29 1   
    15     5    30 1   
    16     6    11 1   
    17     6    31 1   
    18     7     8 2   
    19     7     9 1   
    20     9    20 1   
    21     9    32 1   
    22     9    33 1   
    23    10    11 2   
    24    10    14 1   
    25    11    12 1   
    26    12    13 1   
    27    13    14 2   
    28    14    15 1   
    29    15    16 2   
    30    15    19 1   
    31    16    17 1   
    32    16    34 1   
    33    17    18 2   
    34    17    35 1   
    35    18    19 1   
    36    18    36 1   
    37    20    21 1   
    38    21    22 3   
@<TRIPOS>SUBSTRUCTURE
     1 O8G         1 TEMP              0 ****  ****    0 ROOT
