@<TRIPOS>MOLECULE
O8G
   36    38     1     0     0
SMALL
abcg2


@<TRIPOS>ATOM
      1 C1          -0.9950    -1.0200     1.1670 c6         1 O8G      -0.096400
      2 C4          -2.2790    -1.7880     0.8850 c6         1 O8G       0.096000
      3 N7          -3.0530    -1.1350    -0.1590 n          1 O8G      -0.409800
      4 C8          -2.3330    -0.9920    -1.4130 c6         1 O8G       0.096000
      5 C11         -1.0510    -0.1960    -1.2090 c6         1 O8G      -0.096400
      6 C14         -0.1890    -0.8570    -0.1270 c6         1 O8G      -0.098000
      7 C16         -4.2480    -0.5800     0.1130 c          1 O8G       0.586100
      8 O17         -4.7790    -0.6260     1.2100 o          1 O8G      -0.595100
      9 C18         -4.9510     0.1410    -1.0400 c3         1 O8G       0.078800
     10 N21          2.2880    -0.5170    -0.1260 nc         1 O8G      -0.723000
     11 C22          1.0790    -0.1170     0.0910 cd         1 O8G       0.492300
     12 O23          1.0370     1.1240     0.5570 os         1 O8G      -0.088700
     13 N24          2.3250     1.5770     0.6520 nd         1 O8G      -0.366300
     14 C25          3.0330     0.5680     0.2360 cc         1 O8G       0.643500
     15 C26          4.4750     0.5750     0.1560 cc         1 O8G      -0.297500
     16 C27          5.3490     1.5780     0.4720 cd         1 O8G      -0.080000
     17 C29          6.6980     1.2060     0.2600 cd         1 O8G      -0.141000
     18 C31          6.8190    -0.0680    -0.2120 cc         1 O8G      -0.248000
     19 S33          5.3010    -0.8280    -0.4040 ss         1 O8G       0.293000
     20 N34         -6.3040     0.5280    -0.6900 n2         1 O8G      -0.429200
     21 N36         -6.4290     1.3290     0.2210 n1         1 O8G       0.245000
     22 N37         -6.6690     2.0700     1.0290 n1         1 O8G      -0.046000
     23 H1          -1.2440    -0.0430     1.5890 hc         1 O8G       0.065200
     24 H1A         -0.4100    -1.5620     1.9130 hc         1 O8G       0.065200
     25 H4          -2.0410    -2.8040     0.5550 h1         1 O8G       0.062200
     26 H4A         -2.8800    -1.8680     1.7860 h1         1 O8G       0.062200
     27 H8          -2.0970    -1.9890    -1.7980 h1         1 O8G       0.062200
     28 H8A         -2.9480    -0.5050    -2.1640 h1         1 O8G       0.062200
     29 H11         -0.5060    -0.1470    -2.1540 hc         1 O8G       0.065200
     30 H11A        -1.3050     0.8280    -0.9210 hc         1 O8G       0.065200
     31 H14          0.1070    -1.8500    -0.4790 hc         1 O8G       0.085700
     32 H18         -4.3600     1.0100    -1.3520 h1         1 O8G       0.075200
     33 H18A        -5.0440    -0.5100    -1.9070 h1         1 O8G       0.075200
     34 H27          5.0370     2.5450     0.8420 ha         1 O8G       0.147000
     35 H29          7.5400     1.8550     0.4480 ha         1 O8G       0.138000
     36 H31          7.7250    -0.6000    -0.4580 h4         1 O8G       0.152000
@<TRIPOS>BOND
     1     1     2 1   
     2     1     6 1   
     3     1    23 1   
     4     1    24 1   
     5     2     3 1   
     6     2    25 1   
     7     2    26 1   
     8     3     4 1   
     9     3     7 1   
    10     4     5 1   
    11     4    27 1   
    12     4    28 1   
    13     5     6 1   
    14     5    29 1   
    15     5    30 1   
    16     6    11 1   
    17     6    31 1   
    18     7     8 2   
    19     7     9 1   
    20     9    20 1   
    21     9    32 1   
    22     9    33 1   
    23    10    11 2   
    24    10    14 1   
    25    11    12 1   
    26    12    13 1   
    27    13    14 2   
    28    14    15 1   
    29    15    16 2   
    30    15    19 1   
    31    16    17 1   
    32    16    34 1   
    33    17    18 2   
    34    17    35 1   
    35    18    19 1   
    36    18    36 1   
    37    20    21 1   
    38    21    22 3   
@<TRIPOS>SUBSTRUCTURE
     1 O8G         1 TEMP              0 ****  ****    0 ROOT
