@<TRIPOS>MOLECULE
O8H
   58    62     1     0     0
SMALL
No Charge or Current Charge


@<TRIPOS>ATOM
      1 C07          5.4560    -0.9060    -0.7130 ca         1 O8H      -0.020500
      2 C05          5.6100    -2.2200    -0.2350 ca         1 O8H      -0.102000
      3 C04          6.0510    -2.4420     1.0780 ca         1 O8H       0.239000
      4 I01          6.2850    -4.4680     1.8080 i          1 O8H      -0.296000
      5 C02          6.3390    -1.3580     1.9210 ca         1 O8H      -0.102000
      6 C10          6.1880    -0.0410     1.4510 ca         1 O8H      -0.020500
      7 C09          5.7470     0.1880     0.1290 ca         1 O8H      -0.299500
      8 S12          5.5420     1.8670    -0.4840 sy         1 O8H       1.150600
      9 O13          6.1620     2.8160     0.4430 o          1 O8H      -0.525500
     10 O16          5.7790     1.8860    -1.9300 o          1 O8H      -0.525500
     11 N14          3.8950     2.0210    -0.2920 n7         1 O8H      -0.853300
     12 C17          3.3320     3.3900    -0.2580 c3         1 O8H       0.190500
     13 C20          1.8320     3.3730    -0.0600 cc         1 O8H       0.183300
     14 C24          0.9080     2.6330    -0.7320 cd         1 O8H      -0.191000
     15 N21          1.2220     4.1570     0.8790 nc         1 O8H      -0.318000
     16 N22         -0.0690     3.9380     0.8280 nd         1 O8H      -0.182800
     17 N23         -0.2830     3.0000    -0.1490 na         1 O8H       0.134800
     18 C26         -1.6310     2.5260    -0.4860 c3         1 O8H      -0.009400
     19 C29         -2.0690     1.2770     0.2980 c          1 O8H       0.594100
     20 O31         -1.2820     0.6560     1.0040 o          1 O8H      -0.566100
     21 N30         -3.4330     0.8950     0.2360 n          1 O8H      -0.413800
     22 C43         -4.2580     1.2280    -0.9700 c6         1 O8H       0.098500
     23 C40         -5.7850     1.0930    -0.7630 c6         1 O8H      -0.094400
     24 C32         -3.8780    -0.3130     0.9990 c6         1 O8H       0.098500
     25 C35         -5.4070    -0.4280     1.1920 c6         1 O8H      -0.094400
     26 C38         -6.1600    -0.2750    -0.1490 c6         1 O8H      -0.097000
     27 C46         -7.6550    -0.4000     0.0450 cc         1 O8H       0.490300
     28 N50         -8.4520    -1.3050    -0.4800 nd         1 O8H      -0.723000
     29 O47         -8.3120     0.4900     0.8420 os         1 O8H      -0.087700
     30 N48         -9.6680     0.1060     0.8160 nc         1 O8H      -0.363300
     31 C49         -9.6800    -0.9530     0.0220 cd         1 O8H       0.643500
     32 C51        -10.8760    -1.6760    -0.2890 cd         1 O8H      -0.299500
     33 C52        -12.1140    -1.3380     0.2030 cc         1 O8H      -0.079000
     34 C54        -13.1330    -2.2080    -0.2550 cc         1 O8H      -0.141000
     35 C56        -12.6800    -3.2010    -1.0900 cd         1 O8H      -0.248000
     36 S58        -10.9250    -3.0920    -1.3450 ss         1 O8H       0.294000
     37 H07          5.1090    -0.7440    -1.7330 ha         1 O8H       0.140000
     38 H05          5.3870    -3.0640    -0.8810 ha         1 O8H       0.133000
     39 H02          6.6800    -1.5390     2.9360 ha         1 O8H       0.133000
     40 H10          6.4160     0.7910     2.1170 ha         1 O8H       0.140000
     41 HN14         3.7430     1.5580     0.6030 hn         1 O8H       0.481000
     42 H17          3.7850     3.9820     0.5500 h1         1 O8H       0.065700
     43 H17A         3.5440     3.9140    -1.2010 h1         1 O8H       0.065700
     44 H24          1.0070     1.9080    -1.5290 h4         1 O8H       0.166000
     45 H26         -2.3500     3.3270    -0.2780 h1         1 O8H       0.087700
     46 H26A        -1.6720     2.2910    -1.5550 h1         1 O8H       0.087700
     47 H43         -4.0600     2.2570    -1.3020 h1         1 O8H       0.059200
     48 H43A        -3.9520     0.5620    -1.7900 h1         1 O8H       0.059200
     49 H40         -6.1290     1.9070    -0.1090 hc         1 O8H       0.068200
     50 H40A        -6.2980     1.2310    -1.7250 hc         1 O8H       0.068200
     51 H32         -3.5190    -1.2070     0.4680 h1         1 O8H       0.059200
     52 H32A        -3.4050    -0.3180     1.9910 h1         1 O8H       0.059200
     53 H35         -5.6460    -1.3970     1.6540 hc         1 O8H       0.068200
     54 H35A        -5.7370     0.3440     1.9020 hc         1 O8H       0.068200
     55 H38         -5.8270    -1.0700    -0.8310 hc         1 O8H       0.084700
     56 H52        -12.3180    -0.5030     0.8710 ha         1 O8H       0.148000
     57 H54        -14.1730    -2.0860     0.0370 ha         1 O8H       0.139000
     58 H56        -13.2500    -3.9870    -1.5720 h4         1 O8H       0.153000
@<TRIPOS>BOND
     1     1     2 ar  
     2     1     7 ar  
     3     1    37 1   
     4     2     3 ar  
     5     2    38 1   
     6     3     4 1   
     7     3     5 ar  
     8     5     6 ar  
     9     5    39 1   
    10     6     7 ar  
    11     6    40 1   
    12     7     8 1   
    13     8     9 2   
    14     8    10 2   
    15     8    11 1   
    16    11    12 1   
    17    11    41 1   
    18    12    13 1   
    19    12    42 1   
    20    12    43 1   
    21    13    14 2   
    22    13    15 1   
    23    14    17 1   
    24    14    44 1   
    25    15    16 2   
    26    16    17 1   
    27    17    18 1   
    28    18    19 1   
    29    18    45 1   
    30    18    46 1   
    31    19    20 2   
    32    19    21 1   
    33    21    22 1   
    34    21    24 1   
    35    22    23 1   
    36    22    47 1   
    37    22    48 1   
    38    23    26 1   
    39    23    49 1   
    40    23    50 1   
    41    24    25 1   
    42    24    51 1   
    43    24    52 1   
    44    25    26 1   
    45    25    53 1   
    46    25    54 1   
    47    26    27 1   
    48    26    55 1   
    49    27    28 2   
    50    27    29 1   
    51    28    31 1   
    52    29    30 1   
    53    30    31 2   
    54    31    32 1   
    55    32    33 2   
    56    32    36 1   
    57    33    34 1   
    58    33    56 1   
    59    34    35 2   
    60    34    57 1   
    61    35    36 1   
    62    35    58 1   
@<TRIPOS>SUBSTRUCTURE
     1 O8H         1 TEMP              0 ****  ****    0 ROOT
