@<TRIPOS>MOLECULE
O8H
   58    62     1     0     0
SMALL
abcg2


@<TRIPOS>ATOM
      1 C07          6.3060     0.6050    -1.2140 ca         1 O8H      -0.020500
      2 C05          6.8420    -0.6510    -0.9780 ca         1 O8H      -0.102000
      3 C04          7.0940    -1.0480     0.3290 ca         1 O8H       0.239000
      4 I01          7.9040    -2.9500     0.6880 i          1 O8H      -0.296000
      5 C02          6.8240    -0.2100     1.4010 ca         1 O8H      -0.102000
      6 C10          6.2880     1.0470     1.1630 ca         1 O8H      -0.020500
      7 C09          6.0320     1.4440    -0.1410 ca         1 O8H      -0.299500
      8 S12          5.2930     3.0270    -0.4540 sy         1 O8H       1.150600
      9 O13          5.4680     3.8370     0.7390 o          1 O8H      -0.525500
     10 O16          5.7620     3.4990    -1.7430 o          1 O8H      -0.525500
     11 N14          3.6780     2.7580    -0.6230 n7         1 O8H      -0.853300
     12 C17          2.9280     2.2360     0.5210 c3         1 O8H       0.190500
     13 C20          1.4980     2.0830     0.1450 cc         1 O8H       0.183300
     14 C24          0.7840     0.9320    -0.0480 cd         1 O8H      -0.191000
     15 N21          0.6730     3.1280    -0.0920 nc         1 O8H      -0.318000
     16 N22         -0.4890     2.6830    -0.4120 nd         1 O8H      -0.182800
     17 N23         -0.4370     1.3610    -0.4000 na         1 O8H       0.134800
     18 C26         -1.6160     0.5770    -0.6360 c3         1 O8H      -0.009400
     19 C29         -2.3750     0.3580     0.6760 c          1 O8H       0.594100
     20 O31         -1.9610     0.8650     1.7040 o          1 O8H      -0.566100
     21 N30         -3.4790    -0.4050     0.6070 n          1 O8H      -0.413800
     22 C43         -3.9970    -1.0280    -0.5990 c6         1 O8H       0.098500
     23 C40         -5.4070    -0.5390    -0.9020 c6         1 O8H      -0.094400
     24 C32         -4.2980    -0.6430     1.7840 c6         1 O8H       0.098500
     25 C35         -5.7190    -0.1440     1.5630 c6         1 O8H      -0.094400
     26 C38         -6.3160    -0.7910     0.3060 c6         1 O8H      -0.097000
     27 C46         -7.7060    -0.3330     0.0610 cc         1 O8H       0.490300
     28 N50         -8.7960    -1.0250     0.0900 nd         1 O8H      -0.723000
     29 O47         -7.9290     0.9430    -0.2260 os         1 O8H      -0.087700
     30 N48         -9.2780     1.1010    -0.4000 nc         1 O8H      -0.363300
     31 C49         -9.7510    -0.0940    -0.2030 cd         1 O8H       0.643500
     32 C51        -11.1540    -0.4280    -0.2830 cd         1 O8H      -0.299500
     33 C52        -12.2140     0.3860    -0.5770 cc         1 O8H      -0.079000
     34 C54        -13.4470    -0.3090    -0.5610 cc         1 O8H      -0.141000
     35 C56        -13.2970    -1.6300    -0.2560 cd         1 O8H      -0.248000
     36 S58        -11.6630    -2.0450     0.0140 ss         1 O8H       0.294000
     37 H07          6.1150     0.9140    -2.2330 ha         1 O8H       0.140000
     38 H05          7.0580    -1.3010    -1.8150 ha         1 O8H       0.133000
     39 H02          7.0230    -0.5160     2.4180 ha         1 O8H       0.133000
     40 H10          6.0860     1.7030     1.9990 ha         1 O8H       0.140000
     41 HN14         3.4590     2.3040    -1.5040 hn         1 O8H       0.481000
     42 H17          3.3090     1.2670     0.8590 h1         1 O8H       0.065700
     43 H17A         3.0240     2.9390     1.3480 h1         1 O8H       0.065700
     44 H24          1.0450    -0.1100     0.0310 h4         1 O8H       0.166000
     45 H26         -2.2350     1.1030    -1.3640 h1         1 O8H       0.087700
     46 H26A        -1.3110    -0.3680    -1.0850 h1         1 O8H       0.087700
     47 H43         -3.3530    -0.8340    -1.4520 h1         1 O8H       0.059200
     48 H43A        -4.0020    -2.1130    -0.4540 h1         1 O8H       0.059200
     49 H40         -5.3760     0.5260    -1.1430 hc         1 O8H       0.068200
     50 H40A        -5.7840    -1.0660    -1.7800 hc         1 O8H       0.068200
     51 H32         -4.3080    -1.7180     1.9910 h1         1 O8H       0.059200
     52 H32A        -3.8530    -0.1470     2.6420 h1         1 O8H       0.059200
     53 H35         -6.3210    -0.3930     2.4390 hc         1 O8H       0.068200
     54 H35A        -5.7130     0.9440     1.4640 hc         1 O8H       0.068200
     55 H38         -6.3860    -1.8700     0.4700 hc         1 O8H       0.084700
     56 H52        -12.1140     1.4400    -0.7950 ha         1 O8H       0.148000
     57 H54        -14.4020     0.1520    -0.7680 ha         1 O8H       0.139000
     58 H56        -14.0670    -2.3820    -0.1750 h4         1 O8H       0.153000
@<TRIPOS>BOND
     1     1     2 ar  
     2     1     7 ar  
     3     1    37 1   
     4     2     3 ar  
     5     2    38 1   
     6     3     4 1   
     7     3     5 ar  
     8     5     6 ar  
     9     5    39 1   
    10     6     7 ar  
    11     6    40 1   
    12     7     8 1   
    13     8     9 2   
    14     8    10 2   
    15     8    11 1   
    16    11    12 1   
    17    11    41 1   
    18    12    13 1   
    19    12    42 1   
    20    12    43 1   
    21    13    14 2   
    22    13    15 1   
    23    14    17 1   
    24    14    44 1   
    25    15    16 2   
    26    16    17 1   
    27    17    18 1   
    28    18    19 1   
    29    18    45 1   
    30    18    46 1   
    31    19    20 2   
    32    19    21 1   
    33    21    22 1   
    34    21    24 1   
    35    22    23 1   
    36    22    47 1   
    37    22    48 1   
    38    23    26 1   
    39    23    49 1   
    40    23    50 1   
    41    24    25 1   
    42    24    51 1   
    43    24    52 1   
    44    25    26 1   
    45    25    53 1   
    46    25    54 1   
    47    26    27 1   
    48    26    55 1   
    49    27    28 2   
    50    27    29 1   
    51    28    31 1   
    52    29    30 1   
    53    30    31 2   
    54    31    32 1   
    55    32    33 2   
    56    32    36 1   
    57    33    34 1   
    58    33    56 1   
    59    34    35 2   
    60    34    57 1   
    61    35    36 1   
    62    35    58 1   
@<TRIPOS>SUBSTRUCTURE
     1 O8H         1 TEMP              0 ****  ****    0 ROOT
