@<TRIPOS>MOLECULE
O8I
   23    22     1     0     0
SMALL
abcg2


@<TRIPOS>ATOM
      1 N1          -0.8720    -9.0910    -0.6690 n2         1 O8I      -0.266700
      2 C4          -1.2270    -6.8770     0.3280 c          1 O8I       0.519800
      3 C5          -0.7650    -7.4560    -4.6880 c3         1 O8I      -0.082100
      4 C6          -2.8730    -5.7820     1.6380 c3         1 O8I       0.168600
      5 C7          -2.8670    -4.3510     1.1510 c3         1 O8I      -0.122100
      6 C1          -0.7220    -8.1600    -3.3440 c3         1 O8I      -0.163400
      7 C2          -1.0010    -7.2560    -2.1780 c          1 O8I       0.503800
      8 C3          -1.0380    -7.8410    -0.8120 ce         1 O8I       0.274300
      9 O1          -2.5030    -6.7080     0.5940 os         1 O8I      -0.429100
     10 O2          -1.1920    -6.0640    -2.2810 o          1 O8I      -0.492100
     11 O3          -0.3040    -6.3490     0.8860 o          1 O8I      -0.458000
     12 O4          -0.9320    -9.4980     0.6050 oh         1 O8I      -0.486000
     13 H1          -0.5540    -8.1710    -5.4820 hc         1 O8I       0.043367
     14 H2          -1.7440    -7.0220    -4.8860 hc         1 O8I       0.043367
     15 H3          -0.0240    -6.6610    -4.7540 hc         1 O8I       0.043367
     16 H4          -3.8770    -6.0900     1.9250 h1         1 O8I       0.060200
     17 H5          -2.2180    -5.9140     2.5000 h1         1 O8I       0.060200
     18 H6          -3.2360    -3.7060     1.9490 hc         1 O8I       0.051367
     19 H7          -1.8680    -4.0110     0.8840 hc         1 O8I       0.051367
     20 H8          -3.5220    -4.2230     0.2900 hc         1 O8I       0.051367
     21 H9          -1.4340    -8.9900    -3.3160 hc         1 O8I       0.073200
     22 H10          0.2550    -8.6250    -3.1800 hc         1 O8I       0.073200
     23 H11         -0.7910   -10.4540     0.5740 ho         1 O8I       0.482000
@<TRIPOS>BOND
     1     1     8 2   
     2     1    12 1   
     3     2     8 1   
     4     2     9 1   
     5     2    11 2   
     6     3     6 1   
     7     3    13 1   
     8     3    14 1   
     9     3    15 1   
    10     4     5 1   
    11     4     9 1   
    12     4    16 1   
    13     4    17 1   
    14     5    18 1   
    15     5    19 1   
    16     5    20 1   
    17     6     7 1   
    18     6    21 1   
    19     6    22 1   
    20     7     8 1   
    21     7    10 2   
    22    12    23 1   
@<TRIPOS>SUBSTRUCTURE
     1 O8I         1 TEMP              0 ****  ****    0 ROOT
