@<TRIPOS>MOLECULE
O8I
   23    22     1     0     0
SMALL
No Charge or Current Charge


@<TRIPOS>ATOM
      1 N1           0.1080    -8.2660    -0.8420 n2         1 O8I      -0.266700
      2 C4          -1.4540    -6.9020     0.3960 c          1 O8I       0.519800
      3 C5          -0.5260    -7.6500    -4.2740 c3         1 O8I      -0.082100
      4 C6          -3.1790    -5.5020     1.4070 c3         1 O8I       0.168600
      5 C7          -2.4940    -4.1230     1.3210 c3         1 O8I      -0.122100
      6 C1          -1.3720    -8.5350    -3.3310 c3         1 O8I      -0.163400
      7 C2          -1.8990    -7.7280    -2.1190 c          1 O8I       0.503800
      8 C3          -1.0570    -7.6690    -0.8530 ce         1 O8I       0.274300
      9 O1          -2.7050    -6.3280     0.3230 os         1 O8I      -0.429100
     10 O2          -2.9730    -7.1480    -2.2500 o          1 O8I      -0.492100
     11 O3          -0.7410    -6.8020     1.3920 o          1 O8I      -0.458000
     12 O4           0.0880    -9.5560    -0.2820 oh         1 O8I      -0.486000
     13 H1          -0.1690    -8.2340    -5.1310 hc         1 O8I       0.043367
     14 H2          -1.1200    -6.8100    -4.6570 hc         1 O8I       0.043367
     15 H3           0.3490    -7.2440    -3.7510 hc         1 O8I       0.043367
     16 H4          -4.2630    -5.3570     1.3150 h1         1 O8I       0.060200
     17 H5          -2.9890    -5.9670     2.3840 h1         1 O8I       0.060200
     18 H6          -2.9060    -3.4510     2.0830 hc         1 O8I       0.051367
     19 H7          -1.4140    -4.2010     1.4890 hc         1 O8I       0.051367
     20 H8          -2.6640    -3.6690     0.3380 hc         1 O8I       0.051367
     21 H9          -2.2230    -8.9300    -3.8990 hc         1 O8I       0.073200
     22 H10         -0.7310    -9.3610    -3.0050 hc         1 O8I       0.073200
     23 H11          1.0250    -9.8680    -0.3220 ho         1 O8I       0.482000
@<TRIPOS>BOND
     1     1     8 2   
     2     1    12 1   
     3     2     8 1   
     4     2     9 1   
     5     2    11 2   
     6     3     6 1   
     7     3    13 1   
     8     3    14 1   
     9     3    15 1   
    10     4     5 1   
    11     4     9 1   
    12     4    16 1   
    13     4    17 1   
    14     5    18 1   
    15     5    19 1   
    16     5    20 1   
    17     6     7 1   
    18     6    21 1   
    19     6    22 1   
    20     7     8 1   
    21     7    10 2   
    22    12    23 1   
@<TRIPOS>SUBSTRUCTURE
     1 O8I         1 TEMP              0 ****  ****    0 ROOT
