@<TRIPOS>MOLECULE
O8J
   75    77     1     0     0
SMALL
No Charge or Current Charge


@<TRIPOS>ATOM
      1 C13        254.1100   260.9340   248.8480 ce         1 O8J      -0.047200
      2 C15        253.3530   259.7290   248.4560 ce         1 O8J      -0.164000
      3 C17        251.4430   258.4710   247.3400 c3         1 O8J       0.139200
      4 C20        251.9580   256.9410   243.9080 ce         1 O8J      -0.310200
      5 C21        252.4030   255.8350   243.2610 c2         1 O8J      -0.131200
      6 C22        252.9110   255.7440   241.8270 c3         1 O8J      -0.054500
      7 C24        254.4750   255.6260   241.7700 c3         1 O8J       0.183300
      8 C02        255.9830   261.9510   250.3040 c3         1 O8J       0.223500
      9 C03        257.1220   261.4580   251.2160 c3         1 O8J      -0.219400
     10 C04        258.2370   260.7740   250.4190 c          1 O8J       0.583100
     11 C05        258.3210   259.2550   250.4730 c3         1 O8J      -0.208700
     12 C06        258.3710   258.6380   249.1210 cc         1 O8J       0.448300
     13 C08        258.0430   258.0850   247.0790 cd         1 O8J       0.174500
     14 C09        259.0890   257.3490   247.5760 cc         1 O8J       0.174900
     15 C12        255.1080   260.8350   249.7610 c2         1 O8J      -0.231200
     16 C14        253.7500   262.2460   248.1560 c3         1 O8J      -0.065900
     17 C16        252.2120   259.7110   247.7280 c2         1 O8J      -0.227200
     18 C19        251.5870   256.9550   245.3480 c          1 O8J       0.604300
     19 C23        252.3360   256.8630   240.9180 c3         1 O8J      -0.085100
     20 C25        255.0900   255.3550   240.3570 c3         1 O8J      -0.062700
     21 C27        254.5160   254.0870   239.6750 c3         1 O8J      -0.090600
     22 C29        255.3590   257.0190   243.5700 c          1 O8J       0.583100
     23 C30        255.9280   258.4530   243.8090 c5         1 O8J       0.055700
     24 C31        254.7450   259.4630   243.8170 c5         1 O8J      -0.079400
     25 C32        255.3350   260.6420   244.6230 c5         1 O8J      -0.102400
     26 C33        256.0160   259.9080   245.8060 c5         1 O8J       0.113000
     27 C35        257.6040   257.8870   245.6470 c          1 O8J       0.565600
     28 N07        257.5740   258.9080   248.1060 nd         1 O8J      -0.648000
     29 N18        251.6560   258.1980   245.9240 ns         1 O8J      -0.513900
     30 N34        256.5570   258.7020   245.1400 n          1 O8J      -0.391800
     31 O01        255.1610   262.8240   251.0760 oh         1 O8J      -0.651000
     32 O10        259.3130   257.6900   248.8720 os         1 O8J      -0.248000
     33 O11        259.0870   261.4340   249.8350 o          1 O8J      -0.508100
     34 O28        255.0480   256.8680   242.2390 os         1 O8J      -0.458100
     35 O36        258.1290   257.0510   244.9180 o          1 O8J      -0.602100
     36 O37        255.2180   256.1420   244.4140 o          1 O8J      -0.454000
     37 O38        251.3280   255.9450   245.9840 o          1 O8J      -0.589100
     38 H151       253.7650   258.7800   248.8070 ha         1 O8J       0.176000
     39 H171       250.3690   258.6170   247.5180 h1         1 O8J       0.057700
     40 H172       251.7790   257.6120   247.9370 h1         1 O8J       0.057700
     41 H201       251.9600   257.9090   243.4150 ha         1 O8J       0.173000
     42 H211       252.4460   254.8810   243.7940 ha         1 O8J       0.207000
     43 H221       252.5080   254.8030   241.4350 hc         1 O8J       0.068700
     44 H241       254.7790   254.7850   242.4090 h1         1 O8J       0.073700
     45 H261       257.0780   256.1950   240.7910 hc         1 O8J       0.038533
     46 H263       256.9540   254.4450   241.0730 hc         1 O8J       0.038533
     47 H262       257.0540   255.0820   239.4180 hc         1 O8J       0.038533
     48 H021       256.4270   262.5040   249.4630 h1         1 O8J       0.049700
     49 H032       256.6970   260.7700   251.9560 hc         1 O8J       0.070200
     50 H031       257.5620   262.3230   251.7260 hc         1 O8J       0.070200
     51 H052       257.4790   258.8420   251.0360 hc         1 O8J       0.098700
     52 H051       259.2380   258.9990   251.0130 hc         1 O8J       0.098700
     53 H091       259.7260   256.5980   247.1300 h4         1 O8J       0.079100
     54 H121       255.3170   259.8640   250.2060 ha         1 O8J       0.184000
     55 H142       254.5490   262.9920   248.2250 hc         1 O8J       0.047033
     56 H141       253.5580   262.0980   247.0880 hc         1 O8J       0.047033
     57 H143       252.8500   262.6880   248.6000 hc         1 O8J       0.047033
     58 H161       251.7490   260.6320   247.3750 ha         1 O8J       0.168000
     59 H233       251.2460   256.9230   241.0250 hc         1 O8J       0.038700
     60 H232       252.7610   257.8420   241.1720 hc         1 O8J       0.038700
     61 H231       252.5500   256.6630   239.8620 hc         1 O8J       0.038700
     62 H251       254.8500   256.2090   239.7120 hc         1 O8J       0.058700
     63 H273       253.4500   254.2030   239.4480 hc         1 O8J       0.038533
     64 H271       255.0280   253.8920   238.7250 hc         1 O8J       0.038533
     65 H272       254.6410   253.2070   240.3170 hc         1 O8J       0.038533
     66 H301       256.6360   258.6760   243.0000 h1         1 O8J       0.094700
     67 H312       254.4270   259.7490   242.8080 hc         1 O8J       0.059200
     68 H311       253.8730   259.0510   244.3330 hc         1 O8J       0.059200
     69 H322       256.0700   261.1980   244.0290 hc         1 O8J       0.052200
     70 H321       254.5730   261.3550   244.9540 hc         1 O8J       0.052200
     71 H331       256.7960   260.5340   246.2580 h1         1 O8J       0.067200
     72 H332       255.2910   259.6280   246.5810 h1         1 O8J       0.067200
     73 H181       251.9040   258.9710   245.3210 hn         1 O8J       0.308500
     74 H011       255.7190   263.5880   251.3350 ho         1 O8J       0.445000
     75 C26        256.6370   255.2640   240.4160 c3         1 O8J      -0.090600
@<TRIPOS>BOND
     1     1     2 1   
     2     1    15 2   
     3     1    16 1   
     4     2    17 2   
     5     2    38 1   
     6     3    17 1   
     7     3    29 1   
     8     3    39 1   
     9     3    40 1   
    10     4     5 2   
    11     4    18 1   
    12     4    41 1   
    13     5     6 1   
    14     5    42 1   
    15     6     7 1   
    16     6    19 1   
    17     6    43 1   
    18     7    20 1   
    19     7    34 1   
    20     7    44 1   
    21     8     9 1   
    22     8    15 1   
    23     8    31 1   
    24     8    48 1   
    25     9    10 1   
    26     9    49 1   
    27     9    50 1   
    28    10    11 1   
    29    10    33 2   
    30    11    12 1   
    31    11    51 1   
    32    11    52 1   
    33    12    28 2   
    34    12    32 1   
    35    13    14 2   
    36    13    27 1   
    37    13    28 1   
    38    14    32 1   
    39    14    53 1   
    40    15    54 1   
    41    16    55 1   
    42    16    56 1   
    43    16    57 1   
    44    17    58 1   
    45    18    29 1   
    46    18    37 2   
    47    19    59 1   
    48    19    60 1   
    49    19    61 1   
    50    20    21 1   
    51    20    62 1   
    52    20    75 1   
    53    21    63 1   
    54    21    64 1   
    55    21    65 1   
    56    22    23 1   
    57    22    34 1   
    58    22    36 2   
    59    23    24 1   
    60    23    30 1   
    61    23    66 1   
    62    24    25 1   
    63    24    67 1   
    64    24    68 1   
    65    25    26 1   
    66    25    69 1   
    67    25    70 1   
    68    26    30 1   
    69    26    71 1   
    70    26    72 1   
    71    27    30 1   
    72    27    35 2   
    73    29    73 1   
    74    31    74 1   
    75    45    75 1   
    76    46    75 1   
    77    47    75 1   
@<TRIPOS>SUBSTRUCTURE
     1 O8J         1 TEMP              0 ****  ****    0 ROOT
