@<TRIPOS>MOLECULE
O8J
   75    77     1     0     0
SMALL
bcc


@<TRIPOS>ATOM
      1 C13        254.2560   260.9240   249.3510 ce         1 O8J      -0.047200
      2 C15        253.2080   260.0740   248.7810 ce         1 O8J      -0.114000
      3 C17        251.5480   259.3470   247.0650 c3         1 O8J       0.139200
      4 C20        252.3010   257.1900   244.0830 ce         1 O8J      -0.260200
      5 C21        252.8510   256.0490   243.6730 c2         1 O8J      -0.081200
      6 C22        253.0180   255.6170   242.2480 c3         1 O8J      -0.054500
      7 C24        254.5250   255.4940   241.9420 c3         1 O8J       0.160100
      8 C02        255.5770   261.5050   251.4570 c3         1 O8J       0.200300
      9 C03        256.8410   260.6500   251.6900 c3         1 O8J      -0.219400
     10 C04        257.5440   260.3870   250.3840 c          1 O8J       0.583100
     11 C05        257.4540   258.9740   249.8520 c3         1 O8J      -0.208700
     12 C06        257.9500   258.8440   248.4660 cc         1 O8J       0.492700
     13 C08        258.1780   258.6760   246.3710 cd         1 O8J       0.174500
     14 C09        259.4170   258.6640   246.9120 cc         1 O8J       0.219300
     15 C12        254.5680   260.7540   250.6450 c2         1 O8J      -0.181200
     16 C14        254.9000   261.9340   248.4500 c3         1 O8J      -0.065900
     17 C16        252.7190   260.1530   247.5420 c2         1 O8J      -0.177200
     18 C19        252.2440   257.5560   245.5210 c          1 O8J       0.671300
     19 C23        252.2630   256.4810   241.2470 c3         1 O8J      -0.085100
     20 C25        254.8730   255.0080   240.5360 c3         1 O8J      -0.062700
     21 C27        254.1940   253.6720   240.2430 c3         1 O8J      -0.090600
     22 C29        255.7170   257.1150   243.2430 c          1 O8J       0.632100
     23 C30        256.1420   258.5730   243.2210 c5         1 O8J       0.055700
     24 C31        254.9460   259.5190   242.9860 c5         1 O8J      -0.079400
     25 C32        255.1620   260.6460   243.9890 c5         1 O8J      -0.102400
     26 C33        255.8110   259.9430   245.1690 c5         1 O8J       0.113000
     27 C35        257.8420   258.4760   244.9460 c          1 O8J       0.632600
     28 N07        257.2550   258.7900   247.3890 nd         1 O8J      -0.648000
     29 N18        251.7250   258.7790   245.7480 ns         1 O8J      -0.580900
     30 N34        256.6640   258.9590   244.5150 n          1 O8J      -0.458800
     31 O01        254.9570   261.8120   252.6860 oh         1 O8J      -0.588800
     32 O10        259.2750   258.7810   248.2460 os         1 O8J      -0.336800
     33 O11        258.1210   261.2590   249.7800 o          1 O8J      -0.508100
     34 O28        255.1250   256.7930   242.1020 os         1 O8J      -0.434900
     35 O36        258.6180   257.8720   244.2150 o          1 O8J      -0.602100
     36 O37        255.8890   256.3690   244.1690 o          1 O8J      -0.503000
     37 O38        252.6280   256.8190   246.4190 o          1 O8J      -0.589100
     38 H151       252.7760   259.3410   249.4580 ha         1 O8J       0.126000
     39 H171       250.6680   259.9930   247.0150 h1         1 O8J       0.057700
     40 H172       251.3150   258.5540   247.7770 h1         1 O8J       0.057700
     41 H201       251.8860   257.8970   243.3730 ha         1 O8J       0.123000
     42 H211       253.2460   255.3700   244.4220 ha         1 O8J       0.157000
     43 H221       252.6280   254.5950   242.1930 hc         1 O8J       0.068700
     44 H241       254.9680   254.7980   242.6620 h1         1 O8J       0.073700
     45 H261       256.9100   255.8110   240.5330 hc         1 O8J       0.038533
     46 H263       256.7870   254.1380   241.0810 hc         1 O8J       0.038533
     47 H262       256.6270   254.5250   239.3700 hc         1 O8J       0.038533
     48 H021       255.8850   262.4230   250.9460 h1         1 O8J       0.049700
     49 H032       256.5670   259.7170   252.1860 hc         1 O8J       0.070200
     50 H031       257.5260   261.1970   252.3460 hc         1 O8J       0.070200
     51 H052       256.4110   258.6540   249.8880 hc         1 O8J       0.098700
     52 H051       257.9990   258.3170   250.5390 hc         1 O8J       0.098700
     53 H091       260.4150   258.5890   246.5140 h4         1 O8J       0.079100
     54 H121       254.0530   259.9680   251.1950 ha         1 O8J       0.134000
     55 H142       255.5810   262.6000   248.9730 hc         1 O8J       0.047033
     56 H141       255.4750   261.4290   247.6720 hc         1 O8J       0.047033
     57 H143       254.1540   262.5520   247.9500 hc         1 O8J       0.047033
     58 H161       253.1170   260.8700   246.8300 ha         1 O8J       0.118000
     59 H233       251.2080   256.5370   241.5130 hc         1 O8J       0.038700
     60 H232       252.6510   257.4990   241.2050 hc         1 O8J       0.038700
     61 H231       252.3190   256.0660   240.2410 hc         1 O8J       0.038700
     62 H251       254.5160   255.7450   239.8090 hc         1 O8J       0.058700
     63 H273       253.1080   253.7500   240.2100 hc         1 O8J       0.038533
     64 H271       254.5180   253.2890   239.2750 hc         1 O8J       0.038533
     65 H272       254.4530   252.9240   240.9960 hc         1 O8J       0.038533
     66 H301       256.8960   258.7030   242.4380 h1         1 O8J       0.094700
     67 H312       254.9070   259.8630   241.9540 hc         1 O8J       0.059200
     68 H311       254.0040   259.0100   243.1950 hc         1 O8J       0.059200
     69 H322       255.8380   261.4010   243.5830 hc         1 O8J       0.052200
     70 H321       254.2320   261.1420   244.2660 hc         1 O8J       0.052200
     71 H331       256.3980   260.6180   245.7860 h1         1 O8J       0.067200
     72 H332       255.0670   259.4610   245.8100 h1         1 O8J       0.067200
     73 H181       251.4110   259.3250   244.9630 hn         1 O8J       0.308500
     74 H011       255.5600   262.3530   253.2060 ho         1 O8J       0.406000
     75 C26        256.3850   254.8700   240.3760 c3         1 O8J      -0.090600
@<TRIPOS>BOND
     1     1     2 1   
     2     1    15 2   
     3     1    16 1   
     4     2    17 2   
     5     2    38 1   
     6     3    17 1   
     7     3    29 1   
     8     3    39 1   
     9     3    40 1   
    10     4     5 2   
    11     4    18 1   
    12     4    41 1   
    13     5     6 1   
    14     5    42 1   
    15     6     7 1   
    16     6    19 1   
    17     6    43 1   
    18     7    20 1   
    19     7    34 1   
    20     7    44 1   
    21     8     9 1   
    22     8    15 1   
    23     8    31 1   
    24     8    48 1   
    25     9    10 1   
    26     9    49 1   
    27     9    50 1   
    28    10    11 1   
    29    10    33 2   
    30    11    12 1   
    31    11    51 1   
    32    11    52 1   
    33    12    28 2   
    34    12    32 1   
    35    13    14 2   
    36    13    27 1   
    37    13    28 1   
    38    14    32 1   
    39    14    53 1   
    40    15    54 1   
    41    16    55 1   
    42    16    56 1   
    43    16    57 1   
    44    17    58 1   
    45    18    29 1   
    46    18    37 2   
    47    19    59 1   
    48    19    60 1   
    49    19    61 1   
    50    20    21 1   
    51    20    62 1   
    52    20    75 1   
    53    21    63 1   
    54    21    64 1   
    55    21    65 1   
    56    22    23 1   
    57    22    34 1   
    58    22    36 2   
    59    23    24 1   
    60    23    30 1   
    61    23    66 1   
    62    24    25 1   
    63    24    67 1   
    64    24    68 1   
    65    25    26 1   
    66    25    69 1   
    67    25    70 1   
    68    26    30 1   
    69    26    71 1   
    70    26    72 1   
    71    27    30 1   
    72    27    35 2   
    73    29    73 1   
    74    31    74 1   
    75    45    75 1   
    76    46    75 1   
    77    47    75 1   
@<TRIPOS>SUBSTRUCTURE
     1 O8J         1 TEMP              0 ****  ****    0 ROOT
