@<TRIPOS>MOLECULE
O8K
   48    48     1     0     0
SMALL
abcg2


@<TRIPOS>ATOM
      1 C1          -0.9490     3.0120     1.7430 c3         1 O8K      -0.051900
      2 C2          -0.5840     2.2000     0.5330 c2         1 O8K      -0.125400
      3 C3           0.6940     1.9510     0.2380 c2         1 O8K      -0.193200
      4 C4           1.2320     1.2680    -0.9920 c3         1 O8K      -0.014500
      5 C5           1.2720     2.2950    -2.1330 c3         1 O8K      -0.079100
      6 C6           2.6250     0.6780    -0.7380 c3         1 O8K       0.181300
      7 O7           3.1820     0.3250    -1.9860 oh         1 O8K      -0.716000
      8 C8           2.6540    -0.5680     0.1770 c3         1 O8K       0.175500
      9 O9           2.2960    -0.2030     1.4830 os         1 O8K      -0.445000
     10 C10          2.9910    -0.9060     2.4860 c3         1 O8K       0.144900
     11 C11          1.8190    -1.6850    -0.3810 c2         1 O8K      -0.250200
     12 C12          0.8710    -2.3550     0.2630 c2         1 O8K      -0.203200
     13 C13          0.0210    -3.4260    -0.3500 c3         1 O8K      -0.044200
     14 C14         -1.4690    -3.1640    -0.1190 c3         1 O8K      -0.069400
     15 C15         -1.8970    -1.7850    -0.6020 c3         1 O8K      -0.077400
     16 C16         -3.3510    -1.4460    -0.2580 c3         1 O8K      -0.180400
     17 C17         -3.6080     0.0360    -0.3630 c          1 O8K       0.572100
     18 O18         -4.4200     0.5120    -1.1270 o          1 O8K      -0.521100
     19 C19         -2.7560     0.9110     0.5290 c3         1 O8K      -0.182400
     20 C20         -1.7440     1.7300    -0.2990 c3         1 O8K      -0.028200
     21 H1          -0.0640     3.3950     2.2520 hc         1 O8K       0.037700
     22 H1A         -1.5740     3.8650     1.4670 hc         1 O8K       0.037700
     23 H1B         -1.5220     2.4300     2.4690 hc         1 O8K       0.037700
     24 H3           1.4440     2.3760     0.9010 ha         1 O8K       0.172000
     25 H4           0.5680     0.4490    -1.2900 hc         1 O8K       0.066700
     26 H5           1.9650     3.1070    -1.9030 hc         1 O8K       0.038033
     27 H5A          1.5740     1.8520    -3.0810 hc         1 O8K       0.038033
     28 H5B          0.2850     2.7360    -2.2700 hc         1 O8K       0.038033
     29 H6           3.2400     1.4520    -0.2520 h1         1 O8K       0.037700
     30 HO7          4.0990     0.0670    -1.8470 ho         1 O8K       0.501000
     31 H8           3.7080    -0.9010     0.1690 h1         1 O8K       0.028700
     32 H10          2.8270    -1.9870     2.4340 h1         1 O8K       0.030033
     33 H10A         4.0710    -0.7250     2.4350 h1         1 O8K       0.030033
     34 H10B         2.6290    -0.5520     3.4500 h1         1 O8K       0.030033
     35 H11          2.0300    -1.9370    -1.4160 ha         1 O8K       0.182000
     36 H12          0.6430    -2.1090     1.2980 ha         1 O8K       0.176000
     37 H13          0.2310    -3.5000    -1.4210 hc         1 O8K       0.046200
     38 H13A         0.2740    -4.3990     0.0860 hc         1 O8K       0.046200
     39 H14         -2.0600    -3.9420    -0.6100 hc         1 O8K       0.039200
     40 H14A        -1.6820    -3.2460     0.9530 hc         1 O8K       0.039200
     41 H15         -1.2300    -1.0490    -0.1470 hc         1 O8K       0.052200
     42 H15A        -1.7450    -1.7020    -1.6830 hc         1 O8K       0.052200
     43 H16         -4.0470    -2.0000    -0.8880 hc         1 O8K       0.062700
     44 H16A        -3.5410    -1.7330     0.7830 hc         1 O8K       0.062700
     45 H19         -3.4120     1.5810     1.0900 hc         1 O8K       0.061200
     46 H19A        -2.2280     0.2960     1.2590 hc         1 O8K       0.061200
     47 H20         -2.2620     2.5940    -0.7270 hc         1 O8K       0.053200
     48 H20A        -1.3940     1.1440    -1.1500 hc         1 O8K       0.053200
@<TRIPOS>BOND
     1     1     2 1   
     2     1    21 1   
     3     1    22 1   
     4     1    23 1   
     5     2     3 2   
     6     2    20 1   
     7     3     4 1   
     8     3    24 1   
     9     4     5 1   
    10     4     6 1   
    11     4    25 1   
    12     5    26 1   
    13     5    27 1   
    14     5    28 1   
    15     6     7 1   
    16     6     8 1   
    17     6    29 1   
    18     7    30 1   
    19     8     9 1   
    20     8    11 1   
    21     8    31 1   
    22     9    10 1   
    23    10    32 1   
    24    10    33 1   
    25    10    34 1   
    26    11    12 2   
    27    11    35 1   
    28    12    13 1   
    29    12    36 1   
    30    13    14 1   
    31    13    37 1   
    32    13    38 1   
    33    14    15 1   
    34    14    39 1   
    35    14    40 1   
    36    15    16 1   
    37    15    41 1   
    38    15    42 1   
    39    16    17 1   
    40    16    43 1   
    41    16    44 1   
    42    17    18 2   
    43    17    19 1   
    44    19    20 1   
    45    19    45 1   
    46    19    46 1   
    47    20    47 1   
    48    20    48 1   
@<TRIPOS>SUBSTRUCTURE
     1 O8K         1 TEMP              0 ****  ****    0 ROOT
