@<TRIPOS>MOLECULE
O8K
   48    48     1     0     0
SMALL
No Charge or Current Charge


@<TRIPOS>ATOM
      1 C1          -0.9790     2.9490     1.8460 c3         1 O8K      -0.051900
      2 C2          -0.6040     2.1830     0.5850 c2         1 O8K      -0.125400
      3 C3           0.6840     1.9130     0.2810 c2         1 O8K      -0.193200
      4 C4           1.2390     1.2770    -0.9940 c3         1 O8K      -0.014500
      5 C5           1.1840     2.3400    -2.1250 c3         1 O8K      -0.079100
      6 C6           2.6860     0.6860    -0.8050 c3         1 O8K       0.181300
      7 O7           3.2560     0.3610    -2.0930 oh         1 O8K      -0.716000
      8 C8           2.7950    -0.5750     0.1260 c3         1 O8K       0.175500
      9 O9           2.4500    -0.2070     1.4780 os         1 O8K      -0.445000
     10 C10          3.0400    -1.0210     2.5090 c3         1 O8K       0.144900
     11 C11          1.9360    -1.7480    -0.3470 c2         1 O8K      -0.250200
     12 C12          0.9310    -2.3570     0.3070 c2         1 O8K      -0.203200
     13 C13          0.0500    -3.4490    -0.2720 c3         1 O8K      -0.044200
     14 C14         -1.4530    -3.1730    -0.0450 c3         1 O8K      -0.069400
     15 C15         -1.9360    -1.8410    -0.6660 c3         1 O8K      -0.077400
     16 C16         -3.3540    -1.4240    -0.2060 c3         1 O8K      -0.180400
     17 C17         -3.6200     0.0580    -0.5100 c          1 O8K       0.572100
     18 O18         -4.2990     0.4100    -1.4660 o          1 O8K      -0.521100
     19 C19         -2.9380     1.0730     0.4200 c3         1 O8K      -0.182400
     20 C20         -1.8050     1.8520    -0.3030 c3         1 O8K      -0.028200
     21 H1          -0.0920     3.2790     2.3990 hc         1 O8K       0.037700
     22 H1A         -1.5630     3.8450     1.6040 hc         1 O8K       0.037700
     23 H1B         -1.5740     2.3360     2.5330 hc         1 O8K       0.037700
     24 H3           1.4630     2.2220     0.9800 ha         1 O8K       0.172000
     25 H4           0.5910     0.4480    -1.3000 hc         1 O8K       0.066700
     26 H5           1.8960     3.1510    -1.9290 hc         1 O8K       0.038033
     27 H5A          1.4200     1.9000    -3.1010 hc         1 O8K       0.038033
     28 H5B          0.1840     2.7820    -2.2020 hc         1 O8K       0.038033
     29 H6           3.2980     1.4770    -0.3490 h1         1 O8K       0.037700
     30 HO7          4.2230     0.2360    -1.9590 ho         1 O8K       0.501000
     31 H8           3.8460    -0.8940     0.1010 h1         1 O8K       0.028700
     32 H10          2.7690    -2.0770     2.3880 h1         1 O8K       0.030033
     33 H10A         4.1350    -0.9420     2.4860 h1         1 O8K       0.030033
     34 H10B         2.6960    -0.6920     3.4970 h1         1 O8K       0.030033
     35 H11          2.1850    -2.0670    -1.3600 ha         1 O8K       0.182000
     36 H12          0.6440    -2.0390     1.3110 ha         1 O8K       0.176000
     37 H13          0.2350    -3.5670    -1.3470 hc         1 O8K       0.046200
     38 H13A         0.3030    -4.4100     0.1930 hc         1 O8K       0.046200
     39 H14         -2.0420    -4.0000    -0.4590 hc         1 O8K       0.039200
     40 H14A        -1.6420    -3.1620     1.0360 hc         1 O8K       0.039200
     41 H15         -1.2330    -1.0500    -0.3810 hc         1 O8K       0.052200
     42 H15A        -1.9030    -1.9070    -1.7610 hc         1 O8K       0.052200
     43 H16         -4.1080    -2.0600    -0.6850 hc         1 O8K       0.062700
     44 H16A        -3.3750    -1.5550     0.8830 hc         1 O8K       0.062700
     45 H19         -3.6850     1.7890     0.7810 hc         1 O8K       0.061200
     46 H19A        -2.5140     0.5380     1.2770 hc         1 O8K       0.061200
     47 H20         -2.2270     2.7780    -0.7120 hc         1 O8K       0.053200
     48 H20A        -1.4880     1.2750    -1.1780 hc         1 O8K       0.053200
@<TRIPOS>BOND
     1     1     2 1   
     2     1    21 1   
     3     1    22 1   
     4     1    23 1   
     5     2     3 2   
     6     2    20 1   
     7     3     4 1   
     8     3    24 1   
     9     4     5 1   
    10     4     6 1   
    11     4    25 1   
    12     5    26 1   
    13     5    27 1   
    14     5    28 1   
    15     6     7 1   
    16     6     8 1   
    17     6    29 1   
    18     7    30 1   
    19     8     9 1   
    20     8    11 1   
    21     8    31 1   
    22     9    10 1   
    23    10    32 1   
    24    10    33 1   
    25    10    34 1   
    26    11    12 2   
    27    11    35 1   
    28    12    13 1   
    29    12    36 1   
    30    13    14 1   
    31    13    37 1   
    32    13    38 1   
    33    14    15 1   
    34    14    39 1   
    35    14    40 1   
    36    15    16 1   
    37    15    41 1   
    38    15    42 1   
    39    16    17 1   
    40    16    43 1   
    41    16    44 1   
    42    17    18 2   
    43    17    19 1   
    44    19    20 1   
    45    19    45 1   
    46    19    46 1   
    47    20    47 1   
    48    20    48 1   
@<TRIPOS>SUBSTRUCTURE
     1 O8K         1 TEMP              0 ****  ****    0 ROOT
