@<TRIPOS>MOLECULE
O8L
   43    45     1     0     0
SMALL
abcg2


@<TRIPOS>ATOM
      1 N1           7.7620     3.0580    18.1300 nb         1 O8L      -0.653000
      2 C4           8.4170     2.5340    19.1650 ca         1 O8L       0.320900
      3 C5           6.5420     2.5740    17.8760 ca         1 O8L       0.331900
      4 C6           5.9550     1.5610    18.6190 ca         1 O8L      -0.157000
      5 C7           6.6380     0.9930    19.6950 ca         1 O8L      -0.018300
      6 C8           6.0510    -0.1320    20.4880 c3         1 O8L      -0.054800
      7 C10         11.3260    -0.8200    22.3940 ca         1 O8L      -0.131000
      8 C13         12.8300     1.4890    21.9570 ca         1 O8L       0.157100
      9 C15         12.0700     4.4450    21.0370 cy         1 O8L      -0.213400
     10 C17         11.5720     1.5750    22.5440 ca         1 O8L      -0.203000
     11 C16         13.1610     5.4680    20.6890 c          1 O8L       0.579000
     12 N2          14.0520     4.8630    21.5270 ns         1 O8L      -0.526900
     13 C14         13.1340     3.8570    22.0050 cy         1 O8L       0.324700
     14 O1          13.6220     2.5630    21.6830 os         1 O8L      -0.353100
     15 C12         13.3560     0.2470    21.5930 ca         1 O8L      -0.128000
     16 C11         12.5920    -0.8800    21.8200 ca         1 O8L       0.156000
     17 CL          13.2380    -2.4430    21.3610 cl         1 O8L      -0.195000
     18 C9          10.8130     0.4200    22.7590 ca         1 O8L      -0.048300
     19 C1           9.4230     0.5810    23.3380 c3         1 O8L      -0.099400
     20 C            8.8290    -0.6910    23.9580 c3         1 O8L      -0.081100
     21 C2           8.4040     1.1500    22.3400 c          1 O8L       0.598100
     22 O            7.3600     1.6570    22.7340 o          1 O8L      -0.587100
     23 C3           7.9040     1.5190    19.9690 ca         1 O8L      -0.103000
     24 H1           9.4060     2.9280    19.3810 h4         1 O8L       0.014100
     25 H2           6.0120     3.0120    17.0370 h4         1 O8L       0.023100
     26 H3           4.9710     1.1970    18.3520 ha         1 O8L       0.125000
     27 H4           6.8050    -0.8920    20.6990 hc         1 O8L       0.054700
     28 H5           5.6860     0.2310    21.4510 hc         1 O8L       0.054700
     29 H6           5.2220    -0.5900    19.9510 hc         1 O8L       0.054700
     30 H7          10.7620    -1.7280    22.5430 ha         1 O8L       0.139000
     31 H9          11.7870     3.7780    20.2250 hc         1 O8L       0.093200
     32 H10         11.1520     2.5300    22.8260 ha         1 O8L       0.125000
     33 H11         14.9650     5.1390    21.8630 hn         1 O8L       0.343500
     34 H12         12.9090     3.9160    23.0700 h2         1 O8L       0.069700
     35 H13         14.3360     0.1870    21.1410 ha         1 O8L       0.151000
     36 H14          9.4790     1.3410    24.1200 hc         1 O8L       0.085700
     37 H15          9.5020    -1.0900    24.7170 hc         1 O8L       0.049700
     38 H16          7.8750    -0.4570    24.4270 hc         1 O8L       0.049700
     39 H17          8.6580    -1.4620    23.2060 hc         1 O8L       0.049700
     40 N            8.7090     1.0220    21.0250 ns         1 O8L      -0.157000
     41 H8          11.1880     4.8740    21.5070 hc         1 O8L       0.093200
     42 O2          13.2380     6.4570    19.9950 o          1 O8L      -0.496000
     43 H18          9.6450     0.7270    20.7900 hn         1 O8L       0.162000
@<TRIPOS>BOND
     1     1     2 ar  
     2     1     3 ar  
     3     2    23 ar  
     4     2    24 1   
     5     3     4 ar  
     6     3    25 1   
     7     4     5 ar  
     8     4    26 1   
     9     5     6 1   
    10     5    23 ar  
    11     6    27 1   
    12     6    28 1   
    13     6    29 1   
    14     7    16 ar  
    15     7    18 ar  
    16     7    30 1   
    17     8    10 ar  
    18     8    14 1   
    19     8    15 ar  
    20     9    11 1   
    21     9    13 1   
    22     9    31 1   
    23     9    41 1   
    24    10    18 ar  
    25    10    32 1   
    26    11    12 1   
    27    11    42 2   
    28    12    13 1   
    29    12    33 1   
    30    13    14 1   
    31    13    34 1   
    32    15    16 ar  
    33    15    35 1   
    34    16    17 1   
    35    18    19 1   
    36    19    20 1   
    37    19    21 1   
    38    19    36 1   
    39    20    37 1   
    40    20    38 1   
    41    20    39 1   
    42    21    22 2   
    43    21    40 1   
    44    23    40 1   
    45    40    43 1   
@<TRIPOS>SUBSTRUCTURE
     1 O8L         1 TEMP              0 ****  ****    0 ROOT
