@<TRIPOS>MOLECULE
O8L
   43    45     1     0     0
SMALL
No Charge or Current Charge


@<TRIPOS>ATOM
      1 N1           7.9470     1.8930    17.5370 nb         1 O8L      -0.653000
      2 C4           8.5460     1.4690    18.6730 ca         1 O8L       0.320900
      3 C5           6.5990     1.9790    17.5350 ca         1 O8L       0.331900
      4 C6           5.8110     1.6380    18.6460 ca         1 O8L      -0.157000
      5 C7           6.4270     1.1940    19.8310 ca         1 O8L      -0.018300
      6 C8           5.5550     0.7650    21.0070 c3         1 O8L      -0.054800
      7 C10         11.5380    -0.7950    22.1640 ca         1 O8L      -0.131000
      8 C13         12.9500     1.6350    22.0920 ca         1 O8L       0.157100
      9 C15         12.0900     4.5300    21.0570 cy         1 O8L      -0.213400
     10 C17         11.6470     1.5860    22.6330 ca         1 O8L      -0.203000
     11 C16         13.2200     5.6390    20.9770 c          1 O8L       0.579000
     12 N2          13.9910     5.0920    21.9220 ns         1 O8L      -0.526900
     13 C14         13.0900     4.0860    22.2200 cy         1 O8L       0.324700
     14 O1          13.6790     2.8040    22.0240 os         1 O8L      -0.353100
     15 C12         13.5420     0.4650    21.6010 ca         1 O8L      -0.128000
     16 C11         12.8380    -0.7460    21.6370 ca         1 O8L       0.156000
     17 Cl          13.5830    -2.2100    21.0090 cl         1 O8L      -0.195000
     18 C9          10.9300     0.3730    22.6740 ca         1 O8L      -0.048300
     19 C1           9.5040     0.3860    23.2450 c3         1 O8L      -0.099400
     20 C            8.9350    -1.0040    23.6340 c3         1 O8L      -0.081100
     21 C2           8.5420     1.1260    22.2970 c          1 O8L       0.598100
     22 O            7.8560     2.0710    22.6710 o          1 O8L      -0.587100
     23 C3           7.8420     1.1260    19.8470 ca         1 O8L      -0.103000
     24 H1           9.6340     1.4140    18.6460 h4         1 O8L       0.014100
     25 H2           6.1350     2.3220    16.6110 h4         1 O8L       0.023100
     26 H3           4.7300     1.7120    18.5760 ha         1 O8L       0.125000
     27 H4           6.0060    -0.0600    21.5720 hc         1 O8L       0.054700
     28 H5           5.3830     1.6000    21.6960 hc         1 O8L       0.054700
     29 H6           4.5730     0.4160    20.6650 hc         1 O8L       0.054700
     30 H7          11.0200    -1.7500    22.1680 ha         1 O8L       0.139000
     31 H9          12.0510     3.9150    20.1550 hc         1 O8L       0.093200
     32 H10         11.1770     2.4830    23.0250 ha         1 O8L       0.125000
     33 H11         14.4500     5.6870    22.5990 hn         1 O8L       0.343500
     34 H12         12.6960     4.1340    23.2420 h2         1 O8L       0.069700
     35 H13         14.5460     0.4970    21.1870 ha         1 O8L       0.151000
     36 H14          9.5190     0.9680    24.1750 hc         1 O8L       0.085700
     37 H15          9.6140    -1.5230    24.3210 hc         1 O8L       0.049700
     38 H16          7.9670    -0.8920    24.1400 hc         1 O8L       0.049700
     39 H17          8.7780    -1.6360    22.7520 hc         1 O8L       0.049700
     40 N            8.5880     0.6980    20.9780 ns         1 O8L      -0.157000
     41 H8          11.1210     4.9410    21.3500 hc         1 O8L       0.093200
     42 O2          13.4340     6.7050    20.4260 o          1 O8L      -0.496000
     43 H18          9.2730    -0.0240    20.7900 hn         1 O8L       0.162000
@<TRIPOS>BOND
     1     1     2 ar  
     2     1     3 ar  
     3     2    23 ar  
     4     2    24 1   
     5     3     4 ar  
     6     3    25 1   
     7     4     5 ar  
     8     4    26 1   
     9     5     6 1   
    10     5    23 ar  
    11     6    27 1   
    12     6    28 1   
    13     6    29 1   
    14     7    16 ar  
    15     7    18 ar  
    16     7    30 1   
    17     8    10 ar  
    18     8    14 1   
    19     8    15 ar  
    20     9    11 1   
    21     9    13 1   
    22     9    31 1   
    23     9    41 1   
    24    10    18 ar  
    25    10    32 1   
    26    11    12 1   
    27    11    42 2   
    28    12    13 1   
    29    12    33 1   
    30    13    14 1   
    31    13    34 1   
    32    15    16 ar  
    33    15    35 1   
    34    16    17 1   
    35    18    19 1   
    36    19    20 1   
    37    19    21 1   
    38    19    36 1   
    39    20    37 1   
    40    20    38 1   
    41    20    39 1   
    42    21    22 2   
    43    21    40 1   
    44    23    40 1   
    45    40    43 1   
@<TRIPOS>SUBSTRUCTURE
     1 O8L         1 TEMP              0 ****  ****    0 ROOT
