@<TRIPOS>MOLECULE
O8M
   46    48     1     0     0
SMALL
bcc


@<TRIPOS>ATOM
      1 O2           3.3440    -2.8340    -0.2760 o          1 O8M      -0.572100
      2 C4           4.2290    -2.2280     0.3050 c          1 O8M       0.666100
      3 C5           4.0860    -0.7700     0.7190 c3         1 O8M       0.086800
      4 N2           3.2740    -0.0170    -0.1980 n3         1 O8M      -0.688600
      5 C6           3.9480     0.2020    -1.4610 c3         1 O8M       0.150100
      6 C14          2.7910     1.2080     0.3990 c3         1 O8M       0.160800
      7 C13          1.6940     1.8880    -0.4080 c5         1 O8M       0.147100
      8 O4           0.6760     0.9550    -0.7870 os         1 O8M      -0.378600
      9 C1          -0.5480     1.3170    -0.2190 c5         1 O8M       0.265800
     10 N5          -1.3290     0.1400     0.0720 na         1 O8M      -0.257000
     11 C11         -2.6260    -0.0190    -0.3350 ca         1 O8M       0.466800
     12 N4          -3.3800     0.8270    -1.0300 nb         1 O8M      -0.743000
     13 C10         -4.5890     0.3400    -1.2530 ca         1 O8M       0.703900
     14 N3          -5.0890    -0.8320    -0.8720 nb         1 O8M      -0.828000
     15 C9          -4.3160    -1.6720    -0.1740 ca         1 O8M       0.773200
     16 N7          -4.8200    -2.8450     0.2220 nv         1 O8M      -0.954500
     17 C12         -3.0040    -1.2680     0.1230 ca         1 O8M      -0.221200
     18 N6          -1.9700    -1.8690     0.7910 nc         1 O8M      -0.565100
     19 C7          -0.9860    -1.0150     0.7500 cd         1 O8M       0.433800
     20 C2          -0.2000     2.1970     0.9770 c5         1 O8M       0.056100
     21 O1          -1.3000     2.9830     1.3250 oh         1 O8M      -0.566800
     22 C3           0.9950     2.9720     0.4090 c5         1 O8M       0.082100
     23 O3           0.5670     3.9920    -0.4560 oh         1 O8M      -0.582800
     24 C8           0.3460    -1.2690     1.3530 c3         1 O8M      -0.117400
     25 N1           5.3850    -2.7950     0.6810 nt         1 O8M      -0.685000
     26 H5           3.5960    -0.7860     1.6980 h1         1 O8M       0.040700
     27 H5A          5.0800    -0.3210     0.8870 h1         1 O8M       0.040700
     28 H6           4.2770    -0.7460    -1.8850 h1         1 O8M       0.038700
     29 H6A          3.2720     0.6510    -2.1890 h1         1 O8M       0.038700
     30 H6B          4.8290     0.8560    -1.3720 h1         1 O8M       0.038700
     31 H7           2.4110     0.9740     1.3980 h1         1 O8M       0.031200
     32 H5'A         3.5910     1.9540     0.5430 h1         1 O8M       0.031200
     33 H4           2.1130     2.3270    -1.3180 h1         1 O8M       0.090700
     34 H1          -1.1610     1.8990    -0.9170 h2         1 O8M       0.116700
     35 H10         -5.2640     0.9750    -1.8170 h5         1 O8M       0.044100
     36 HN7         -5.7310    -3.1300    -0.0920 hn         1 O8M       0.447800
     37 HN7A        -4.2350    -3.5350     0.6590 hn         1 O8M       0.447800
     38 H2           0.1400     1.5840     1.8200 h1         1 O8M       0.053700
     39 HO2         -1.1760     3.3120     2.2210 ho         1 O8M       0.412000
     40 H3           1.6460     3.3630     1.2030 h1         1 O8M       0.049700
     41 HO3         -0.1320     4.4870    -0.0110 ho         1 O8M       0.425000
     42 H8           0.5710    -0.5510     2.1430 hc         1 O8M       0.064700
     43 H8A          0.3380    -2.2600     1.7990 hc         1 O8M       0.064700
     44 H8B          1.1480    -1.2210     0.6170 hc         1 O8M       0.064700
     45 HN1          5.5440    -3.7790     0.5370 hn         1 O8M       0.313000
     46 HN1A         6.1080    -2.2720     1.1450 hn         1 O8M       0.313000
@<TRIPOS>BOND
     1     1     2 2   
     2     2     3 1   
     3     2    25 1   
     4     3     4 1   
     5     3    26 1   
     6     3    27 1   
     7     4     5 1   
     8     4     6 1   
     9     5    28 1   
    10     5    29 1   
    11     5    30 1   
    12     6     7 1   
    13     6    31 1   
    14     6    32 1   
    15     7     8 1   
    16     7    22 1   
    17     7    33 1   
    18     8     9 1   
    19     9    10 1   
    20     9    20 1   
    21     9    34 1   
    22    10    11 1   
    23    10    19 1   
    24    11    12 ar  
    25    11    17 ar  
    26    12    13 ar  
    27    13    14 ar  
    28    13    35 1   
    29    14    15 ar  
    30    15    16 1   
    31    15    17 ar  
    32    16    36 1   
    33    16    37 1   
    34    17    18 1   
    35    18    19 2   
    36    19    24 1   
    37    20    21 1   
    38    20    22 1   
    39    20    38 1   
    40    21    39 1   
    41    22    23 1   
    42    22    40 1   
    43    23    41 1   
    44    24    42 1   
    45    24    43 1   
    46    24    44 1   
    47    25    45 1   
    48    25    46 1   
@<TRIPOS>SUBSTRUCTURE
     1 O8M         1 TEMP              0 ****  ****    0 ROOT
