@<TRIPOS>MOLECULE
O8M
   46    48     1     0     0
SMALL
No Charge or Current Charge


@<TRIPOS>ATOM
      1 O2           4.0000    -3.3180     0.7270 o          1 O8M      -0.572100
      2 C4           4.7030    -2.3210     0.6490 c          1 O8M       0.599100
      3 C5           4.2080    -0.8840     0.9970 c3         1 O8M       0.086800
      4 N2           3.4090    -0.1520    -0.0390 n3         1 O8M      -0.688600
      5 C6           4.1490     0.0480    -1.3100 c3         1 O8M       0.150100
      6 C14          2.7980     1.0970     0.5000 c3         1 O8M       0.160800
      7 C13          1.7520     1.8140    -0.4130 c5         1 O8M       0.170300
      8 O4           0.7070     0.8750    -0.8060 os         1 O8M      -0.425000
      9 C1          -0.5590     1.3310    -0.2850 c5         1 O8M       0.318300
     10 N5          -1.4460     0.1990    -0.0120 na         1 O8M      -0.286300
     11 C11         -2.7790     0.0970    -0.3170 ca         1 O8M       0.138500
     12 N4          -3.6060     0.9650    -0.9350 nb         1 O8M      -0.217000
     13 C10         -4.8880     0.5570    -1.0890 ca         1 O8M       0.177900
     14 N3          -5.4150    -0.6240    -0.6870 nb         1 O8M      -0.302000
     15 C9          -4.5690    -1.4640    -0.0710 ca         1 O8M       0.444900
     16 N7          -5.0970    -2.6510     0.3320 nv         1 O8M      -1.064900
     17 C12         -3.2140    -1.1250     0.1310 ca         1 O8M      -0.090600
     18 N6          -2.2010    -1.8620     0.7330 nc         1 O8M      -0.565100
     19 C7          -1.1540    -1.0270     0.6240 cd         1 O8M       0.433800
     20 C2          -0.1900     2.2440     0.9280 c5         1 O8M       0.079300
     21 O1          -1.2300     3.1600     1.3280 oh         1 O8M      -0.689000
     22 C3           1.0180     2.9970     0.3080 c5         1 O8M       0.105300
     23 O3           0.5540     4.0130    -0.5930 oh         1 O8M      -0.705000
     24 C8           0.1910    -1.4220     1.1710 c3         1 O8M      -0.117400
     25 N1           5.9920    -2.4340     0.2460 nt         1 O8M      -0.618000
     26 H5           3.6100    -0.9890     1.9110 h1         1 O8M       0.040700
     27 H5A          5.0900    -0.2890     1.2700 h1         1 O8M       0.040700
     28 H6           4.5280    -0.9060    -1.6990 h1         1 O8M       0.038700
     29 H6A          3.5000     0.4770    -2.0840 h1         1 O8M       0.038700
     30 H6B          5.0030     0.7230    -1.1640 h1         1 O8M       0.038700
     31 H7           2.3040     0.8700     1.4530 h1         1 O8M       0.031200
     32 H5'A         3.5920     1.8200     0.7290 h1         1 O8M       0.031200
     33 H4           2.2660     2.1740    -1.3130 h1         1 O8M       0.090700
     34 H1          -1.0590     1.9350    -1.0530 h2         1 O8M       0.116700
     35 H10         -5.5640     1.2490    -1.5890 h5         1 O8M       0.044100
     36 HN7         -5.9700    -2.9540    -0.0910 hn         1 O8M       0.503000
     37 HN7A        -4.4400    -3.3810     0.6000 hn         1 O8M       0.503000
     38 H2           0.1320     1.6380     1.7860 h1         1 O8M       0.053700
     39 HO2         -1.9200     2.6400     1.8070 ho         1 O8M       0.511000
     40 H3           1.6490     3.4450     1.0880 h1         1 O8M       0.049700
     41 HO3         -0.2740     4.3470    -0.1670 ho         1 O8M       0.524000
     42 H8           0.5660    -0.6740     1.8760 hc         1 O8M       0.064700
     43 H8A          0.1410    -2.3790     1.7020 hc         1 O8M       0.064700
     44 H8B          0.9220    -1.5330     0.3630 hc         1 O8M       0.064700
     45 HN1          6.3570    -3.3450     0.0090 hn         1 O8M       0.313000
     46 HN1A         6.5750    -1.6130     0.1770 hn         1 O8M       0.313000
@<TRIPOS>BOND
     1     1     2 2   
     2     2     3 1   
     3     2    25 1   
     4     3     4 1   
     5     3    26 1   
     6     3    27 1   
     7     4     5 1   
     8     4     6 1   
     9     5    28 1   
    10     5    29 1   
    11     5    30 1   
    12     6     7 1   
    13     6    31 1   
    14     6    32 1   
    15     7     8 1   
    16     7    22 1   
    17     7    33 1   
    18     8     9 1   
    19     9    10 1   
    20     9    20 1   
    21     9    34 1   
    22    10    11 1   
    23    10    19 1   
    24    11    12 ar  
    25    11    17 ar  
    26    12    13 ar  
    27    13    14 ar  
    28    13    35 1   
    29    14    15 ar  
    30    15    16 1   
    31    15    17 ar  
    32    16    36 1   
    33    16    37 1   
    34    17    18 1   
    35    18    19 2   
    36    19    24 1   
    37    20    21 1   
    38    20    22 1   
    39    20    38 1   
    40    21    39 1   
    41    22    23 1   
    42    22    40 1   
    43    23    41 1   
    44    24    42 1   
    45    24    43 1   
    46    24    44 1   
    47    25    45 1   
    48    25    46 1   
@<TRIPOS>SUBSTRUCTURE
     1 O8M         1 TEMP              0 ****  ****    0 ROOT
