@<TRIPOS>MOLECULE
O8N
   87    86     1     0     0
SMALL
abcg2


@<TRIPOS>ATOM
      1 C28        -17.8720     0.4230     0.0040 c3         1 O8N      -0.089100
      2 C27        -16.6140    -0.4360    -0.0100 c3         1 O8N      -0.074400
      3 C26        -15.3350     0.3930     0.0040 c3         1 O8N      -0.075400
      4 C25        -14.0670    -0.4500    -0.0110 c3         1 O8N      -0.074400
      5 C24        -12.7920     0.3840     0.0030 c3         1 O8N      -0.074400
      6 C23        -11.5200    -0.4550    -0.0110 c3         1 O8N      -0.074400
      7 C22        -10.2480     0.3830     0.0020 c3         1 O8N      -0.074400
      8 C21         -8.9740    -0.4530    -0.0130 c3         1 O8N      -0.074400
      9 C20         -7.7030     0.3880     0.0010 c3         1 O8N      -0.074400
     10 C19         -6.4280    -0.4460    -0.0140 c3         1 O8N      -0.074400
     11 C18         -5.1580     0.3970     0.0000 c3         1 O8N      -0.074400
     12 C17         -3.8820    -0.4350    -0.0120 c3         1 O8N      -0.074400
     13 C16         -2.6130     0.4090     0.0020 c3         1 O8N      -0.074400
     14 C15         -1.3370    -0.4230    -0.0130 c3         1 O8N      -0.074400
     15 C14         -0.0680     0.4210     0.0030 c3         1 O8N      -0.074400
     16 C13          1.2080    -0.4110    -0.0110 c3         1 O8N      -0.074400
     17 C12          2.4780     0.4320    -0.0010 c3         1 O8N      -0.074400
     18 C11          3.7530    -0.4020    -0.0130 c3         1 O8N      -0.074400
     19 C10          5.0240     0.4390    -0.0030 c3         1 O8N      -0.074400
     20 C9           6.2980    -0.3980    -0.0150 c3         1 O8N      -0.074400
     21 C8           7.5710     0.4400    -0.0040 c3         1 O8N      -0.074400
     22 C7           8.8420    -0.4010    -0.0180 c3         1 O8N      -0.074400
     23 C6          10.1170     0.4330    -0.0020 c3         1 O8N      -0.074400
     24 C5          11.3850    -0.4120    -0.0150 c3         1 O8N      -0.074400
     25 C4          12.6630     0.4170    -0.0030 c3         1 O8N      -0.073400
     26 C3          13.9260    -0.4350    -0.0140 c3         1 O8N      -0.075400
     27 C2          15.2060     0.3910    -0.0040 c3         1 O8N      -0.081400
     28 C1          16.4450    -0.4840    -0.0140 c3         1 O8N       0.163600
     29 O           17.5950     0.3360    -0.0050 oh         1 O8N      -0.662000
     30 H1         -18.7770    -0.1840    -0.0050 hc         1 O8N       0.031367
     31 H2         -17.9060     1.0530     0.8960 hc         1 O8N       0.031367
     32 H3         -17.9070     1.0830    -0.8650 hc         1 O8N       0.031367
     33 H4         -16.6190    -1.1080     0.8530 hc         1 O8N       0.036700
     34 H5         -16.6190    -1.0790    -0.8960 hc         1 O8N       0.036700
     35 H6         -15.3320     1.0670    -0.8610 hc         1 O8N       0.036700
     36 H7         -15.3320     1.0380     0.8900 hc         1 O8N       0.036700
     37 H8         -14.0690    -1.1240     0.8530 hc         1 O8N       0.036700
     38 H9         -14.0690    -1.0950    -0.8970 hc         1 O8N       0.036700
     39 H10        -12.7910     1.0580    -0.8620 hc         1 O8N       0.036700
     40 H11        -12.7900     1.0300     0.8890 hc         1 O8N       0.036700
     41 H12        -11.5200    -1.1290     0.8540 hc         1 O8N       0.036700
     42 H13        -11.5210    -1.1000    -0.8970 hc         1 O8N       0.036700
     43 H14        -10.2480     1.0570    -0.8620 hc         1 O8N       0.036700
     44 H15        -10.2480     1.0280     0.8880 hc         1 O8N       0.036700
     45 H16         -8.9720    -1.1270     0.8510 hc         1 O8N       0.036700
     46 H17         -8.9730    -1.0970    -0.8990 hc         1 O8N       0.036700
     47 H18         -7.7050     1.0630    -0.8620 hc         1 O8N       0.036700
     48 H19         -7.7050     1.0320     0.8880 hc         1 O8N       0.036700
     49 H20         -6.4250    -1.1200     0.8510 hc         1 O8N       0.037200
     50 H21         -6.4260    -1.0910    -0.9000 hc         1 O8N       0.037200
     51 H22         -5.1610     1.0700    -0.8650 hc         1 O8N       0.036700
     52 H23         -5.1620     1.0430     0.8850 hc         1 O8N       0.036700
     53 H24         -3.8790    -1.1080     0.8530 hc         1 O8N       0.036700
     54 H25         -3.8780    -1.0810    -0.8980 hc         1 O8N       0.036700
     55 H26         -2.6170     1.0840    -0.8610 hc         1 O8N       0.037200
     56 H27         -2.6160     1.0530     0.8890 hc         1 O8N       0.037200
     57 H28         -1.3330    -1.0980     0.8500 hc         1 O8N       0.036700
     58 H29         -1.3330    -1.0660    -0.9000 hc         1 O8N       0.036700
     59 H30         -0.0700     1.0960    -0.8610 hc         1 O8N       0.037200
     60 H31         -0.0710     1.0650     0.8900 hc         1 O8N       0.037200
     61 H32          1.2120    -1.0830     0.8540 hc         1 O8N       0.036700
     62 H33          1.2100    -1.0580    -0.8960 hc         1 O8N       0.036700
     63 H34          2.4750     1.1020    -0.8680 hc         1 O8N       0.037700
     64 H35          2.4760     1.0800     0.8830 hc         1 O8N       0.037700
     65 H36          3.7560    -1.0730     0.8540 hc         1 O8N       0.036700
     66 H37          3.7540    -1.0510    -0.8960 hc         1 O8N       0.036700
     67 H38          5.0220     1.1090    -0.8700 hc         1 O8N       0.037700
     68 H39          5.0240     1.0870     0.8810 hc         1 O8N       0.037700
     69 H40          6.2980    -1.0690     0.8520 hc         1 O8N       0.036700
     70 H41          6.2980    -1.0460    -0.8990 hc         1 O8N       0.036700
     71 H42          7.5700     1.1120    -0.8690 hc         1 O8N       0.037700
     72 H43          7.5720     1.0860     0.8810 hc         1 O8N       0.037700
     73 H44          8.8390    -1.0760     0.8450 hc         1 O8N       0.036700
     74 H45          8.8400    -1.0440    -0.9050 hc         1 O8N       0.036700
     75 H46         10.1210     1.1070    -0.8670 hc         1 O8N       0.037700
     76 H47         10.1190     1.0780     0.8840 hc         1 O8N       0.037700
     77 H48         11.3810    -1.0830     0.8510 hc         1 O8N       0.036700
     78 H49         11.3810    -1.0590    -0.8990 hc         1 O8N       0.036700
     79 H50         12.6700     1.0880    -0.8690 hc         1 O8N       0.039700
     80 H51         12.6690     1.0640     0.8820 hc         1 O8N       0.039700
     81 H52         13.9160    -1.1050     0.8530 hc         1 O8N       0.036700
     82 H53         13.9160    -1.0830    -0.8980 hc         1 O8N       0.036700
     83 H54         15.2210     1.0540    -0.8750 hc         1 O8N       0.052700
     84 H55         15.2210     1.0330     0.8830 hc         1 O8N       0.052700
     85 H56         16.4220    -1.1500     0.8590 h1         1 O8N       0.014700
     86 H57         16.4210    -1.1290    -0.9020 h1         1 O8N       0.014700
     87 H58         18.3690    -0.2340    -0.0150 ho         1 O8N       0.442000
@<TRIPOS>BOND
     1     1     2 1   
     2     1    30 1   
     3     1    31 1   
     4     1    32 1   
     5     2     3 1   
     6     2    33 1   
     7     2    34 1   
     8     3     4 1   
     9     3    35 1   
    10     3    36 1   
    11     4     5 1   
    12     4    37 1   
    13     4    38 1   
    14     5     6 1   
    15     5    39 1   
    16     5    40 1   
    17     6     7 1   
    18     6    41 1   
    19     6    42 1   
    20     7     8 1   
    21     7    43 1   
    22     7    44 1   
    23     8     9 1   
    24     8    45 1   
    25     8    46 1   
    26     9    10 1   
    27     9    47 1   
    28     9    48 1   
    29    10    11 1   
    30    10    49 1   
    31    10    50 1   
    32    11    12 1   
    33    11    51 1   
    34    11    52 1   
    35    12    13 1   
    36    12    53 1   
    37    12    54 1   
    38    13    14 1   
    39    13    55 1   
    40    13    56 1   
    41    14    15 1   
    42    14    57 1   
    43    14    58 1   
    44    15    16 1   
    45    15    59 1   
    46    15    60 1   
    47    16    17 1   
    48    16    61 1   
    49    16    62 1   
    50    17    18 1   
    51    17    63 1   
    52    17    64 1   
    53    18    19 1   
    54    18    65 1   
    55    18    66 1   
    56    19    20 1   
    57    19    67 1   
    58    19    68 1   
    59    20    21 1   
    60    20    69 1   
    61    20    70 1   
    62    21    22 1   
    63    21    71 1   
    64    21    72 1   
    65    22    23 1   
    66    22    73 1   
    67    22    74 1   
    68    23    24 1   
    69    23    75 1   
    70    23    76 1   
    71    24    25 1   
    72    24    77 1   
    73    24    78 1   
    74    25    26 1   
    75    25    79 1   
    76    25    80 1   
    77    26    27 1   
    78    26    81 1   
    79    26    82 1   
    80    27    28 1   
    81    27    83 1   
    82    27    84 1   
    83    28    29 1   
    84    28    85 1   
    85    28    86 1   
    86    29    87 1   
@<TRIPOS>SUBSTRUCTURE
     1 O8N         1 TEMP              0 ****  ****    0 ROOT
