@<TRIPOS>MOLECULE
O8O
   57    61     1     0     0
SMALL
abcg2


@<TRIPOS>ATOM
      1 C           14.4700   -44.2310    32.0110 ca         1 O8O       0.181100
      2 N           15.8350   -39.6380    30.3740 nh         1 O8O      -0.788300
      3 O           14.2610   -45.5550    32.0120 oh         1 O8O      -0.522100
      4 O8          16.0640   -39.3340    32.8640 o          1 O8O      -0.532000
      5 S1          15.1160   -39.7780    31.8570 sy         1 O8O       1.210600
      6 O7          13.8080   -39.1550    31.7940 o          1 O8O      -0.532000
      7 C22         14.9000   -41.5140    31.9300 ca         1 O8O      -0.312500
      8 C2          14.5390   -42.1600    30.7480 ca         1 O8O       0.088000
      9 C1          14.3360   -43.5400    30.8200 ca         1 O8O      -0.137000
     10 C23         15.0590   -42.1860    33.1360 ca         1 O8O      -0.063000
     11 C24         14.8390   -43.5470    33.1850 ca         1 O8O       0.027100
     12 O9          14.9580   -44.3050    34.2910 oh         1 O8O      -0.556100
     13 C8          15.1230   -40.2150    29.3030 ca         1 O8O       0.306000
     14 C7          15.1250   -39.5780    28.0660 ca         1 O8O      -0.170000
     15 C6          14.4570   -40.1320    26.9910 ca         1 O8O       0.082100
     16 O2          14.4220   -39.5870    25.7610 oh         1 O8O      -0.549100
     17 C5          13.7330   -41.3250    27.1600 ca         1 O8O       0.115100
     18 O1          13.0420   -41.8800    26.1460 oh         1 O8O      -0.529100
     19 C4          13.7350   -41.9440    28.3910 ca         1 O8O      -0.077000
     20 C3          14.4510   -41.4290    29.4780 ca         1 O8O      -0.081000
     21 C9          17.2110   -39.1920    30.1980 c3         1 O8O       0.276100
     22 C10         18.0890   -40.2670    29.6140 ca         1 O8O      -0.055300
     23 C21         18.1540   -41.5310    30.1980 ca         1 O8O      -0.115500
     24 C20         18.9700   -42.5120    29.6660 ca         1 O8O      -0.014000
     25 C13         19.7390   -42.2200    28.5450 ca         1 O8O      -0.255500
     26 C12         19.6880   -40.9720    27.9480 ca         1 O8O      -0.014000
     27 C11         18.8540   -40.0020    28.4860 ca         1 O8O      -0.115500
     28 S           20.7970   -43.4770    27.8700 sy         1 O8O       1.030000
     29 O5          21.3000   -42.9930    26.5880 o          1 O8O      -0.526500
     30 O6          20.0830   -44.7490    27.9240 o          1 O8O      -0.526500
     31 C14         22.1410   -43.5560    29.0100 ca         1 O8O      -0.277500
     32 C19         23.1270   -42.5720    28.9590 ca         1 O8O      -0.067000
     33 C18         24.1690   -42.6110    29.8620 ca         1 O8O       0.026100
     34 O4          25.1690   -41.7090    29.9110 oh         1 O8O      -0.558100
     35 C17         24.2370   -43.6470    30.8120 ca         1 O8O       0.180100
     36 O3          25.2390   -43.7120    31.6980 oh         1 O8O      -0.523100
     37 C16         23.2500   -44.6200    30.8370 ca         1 O8O      -0.150000
     38 C15         22.1940   -44.5800    29.9390 ca         1 O8O       0.000000
     39 H           14.4110   -45.9280    32.8900 ho         1 O8O       0.491000
     40 H1          14.0970   -44.1080    29.9310 ha         1 O8O       0.142000
     41 H17         15.3510   -41.6530    34.0330 ha         1 O8O       0.135000
     42 H18         15.2280   -43.7810    35.0540 ho         1 O8O       0.483000
     43 H5          15.6490   -38.6390    27.9390 ha         1 O8O       0.124000
     44 H4          14.9380   -38.7730    25.7210 ho         1 O8O       0.480000
     45 H3          13.0830   -41.3240    25.3590 ho         1 O8O       0.486000
     46 H2          13.1570   -42.8530    28.5000 ha         1 O8O       0.141000
     47 H6          17.2290   -38.3030    29.5640 h1         1 O8O       0.074700
     48 H7          17.5970   -38.8800    31.1680 h1         1 O8O       0.074700
     49 H16         17.5650   -41.7610    31.0780 ha         1 O8O       0.119000
     50 H15         19.0080   -43.4890    30.1310 ha         1 O8O       0.136000
     51 H9          20.2800   -40.7480    27.0710 ha         1 O8O       0.136000
     52 H8          18.8010   -39.0280    28.0150 ha         1 O8O       0.119000
     53 H14         23.0820   -41.7730    28.2260 ha         1 O8O       0.130000
     54 H13         25.0610   -41.0280    29.2380 ho         1 O8O       0.481000
     55 H12         25.8600   -42.9840    31.5710 ho         1 O8O       0.491000
     56 H11         23.3120   -45.4150    31.5680 ha         1 O8O       0.138000
     57 H10         21.4330   -45.3460    29.9770 ha         1 O8O       0.145000
@<TRIPOS>BOND
     1     1     3 1   
     2     1     9 ar  
     3     1    11 ar  
     4     2     5 1   
     5     2    13 1   
     6     2    21 1   
     7     3    39 1   
     8     4     5 2   
     9     5     6 2   
    10     5     7 1   
    11     7     8 ar  
    12     7    10 ar  
    13     8     9 ar  
    14     8    20 1   
    15     9    40 1   
    16    10    11 ar  
    17    10    41 1   
    18    11    12 1   
    19    12    42 1   
    20    13    14 ar  
    21    13    20 ar  
    22    14    15 ar  
    23    14    43 1   
    24    15    16 1   
    25    15    17 ar  
    26    16    44 1   
    27    17    18 1   
    28    17    19 ar  
    29    18    45 1   
    30    19    20 ar  
    31    19    46 1   
    32    21    22 1   
    33    21    47 1   
    34    21    48 1   
    35    22    23 ar  
    36    22    27 ar  
    37    23    24 ar  
    38    23    49 1   
    39    24    25 ar  
    40    24    50 1   
    41    25    26 ar  
    42    25    28 1   
    43    26    27 ar  
    44    26    51 1   
    45    27    52 1   
    46    28    29 2   
    47    28    30 2   
    48    28    31 1   
    49    31    32 ar  
    50    31    38 ar  
    51    32    33 ar  
    52    32    53 1   
    53    33    34 1   
    54    33    35 ar  
    55    34    54 1   
    56    35    36 1   
    57    35    37 ar  
    58    36    55 1   
    59    37    38 ar  
    60    37    56 1   
    61    38    57 1   
@<TRIPOS>SUBSTRUCTURE
     1 O8O         1 TEMP              0 ****  ****    0 ROOT
