@<TRIPOS>MOLECULE
O8O
   57    61     1     0     0
SMALL
No Charge or Current Charge


@<TRIPOS>ATOM
      1 C           14.9530   -44.3780    30.9220 ca         1 O8O       0.181100
      2 N           15.6210   -39.2990    30.4990 nh         1 O8O      -0.788300
      3 O           14.9850   -45.7170    30.6670 oh         1 O8O      -0.522100
      4 O8          15.5080   -39.5890    33.0540 o          1 O8O      -0.532000
      5 S1          14.7680   -39.8930    31.8240 sy         1 O8O       1.210600
      6 O7          13.3720   -39.4780    31.6480 o          1 O8O      -0.532000
      7 C22         14.8980   -41.6360    31.4570 ca         1 O8O      -0.312500
      8 C2          14.8280   -42.0660    30.1100 ca         1 O8O       0.088000
      9 C1          14.8420   -43.4630    29.8660 ca         1 O8O      -0.137000
     10 C23         15.0100   -42.5590    32.5200 ca         1 O8O      -0.063000
     11 C24         15.0420   -43.9350    32.2520 ca         1 O8O       0.027100
     12 O9          15.1490   -44.8470    33.2740 oh         1 O8O      -0.556100
     13 C8          15.1270   -39.7490    29.2700 ca         1 O8O       0.306000
     14 C7          15.1060   -38.8240    28.2120 ca         1 O8O      -0.170000
     15 C6          14.7190   -39.2170    26.9250 ca         1 O8O       0.082100
     16 O2          14.6940   -38.3070    25.9010 oh         1 O8O      -0.549100
     17 C5          14.3630   -40.5540    26.6870 ca         1 O8O       0.115100
     18 O1          13.9840   -40.9350    25.4320 oh         1 O8O      -0.529100
     19 C4          14.3930   -41.4930    27.7290 ca         1 O8O      -0.077000
     20 C3          14.7700   -41.1130    29.0450 ca         1 O8O      -0.081000
     21 C9          17.0790   -39.1240    30.6540 c3         1 O8O       0.276100
     22 C10         17.8680   -40.4190    30.4640 ca         1 O8O      -0.055300
     23 C21         18.2350   -41.2020    31.5760 ca         1 O8O      -0.115500
     24 C20         18.9130   -42.4200    31.3980 ca         1 O8O      -0.014000
     25 C13         19.2340   -42.8670    30.1000 ca         1 O8O      -0.255500
     26 C12         18.8820   -42.0790    28.9860 ca         1 O8O      -0.014000
     27 C11         18.2030   -40.8630    29.1700 ca         1 O8O      -0.115500
     28 S           20.1120   -44.4260    29.8670 sy         1 O8O       1.030000
     29 O5          19.8020   -44.9220    28.5180 o          1 O8O      -0.526500
     30 O6          19.8790   -45.2590    31.0560 o          1 O8O      -0.526500
     31 C14         21.8470   -43.9160    29.8830 ca         1 O8O      -0.277500
     32 C19         22.4980   -43.5590    28.6800 ca         1 O8O      -0.067000
     33 C18         23.8450   -43.1500    28.7040 ca         1 O8O       0.026100
     34 O4          24.4890   -42.8040    27.5400 oh         1 O8O      -0.558100
     35 C17         24.5370   -43.0960    29.9310 ca         1 O8O       0.180100
     36 O3          25.8410   -42.6990    29.9450 oh         1 O8O      -0.523100
     37 C16         23.8920   -43.4440    31.1260 ca         1 O8O      -0.150000
     38 C15         22.5480   -43.8530    31.1070 ca         1 O8O       0.000000
     39 H           15.0710   -46.1490    31.5470 ho         1 O8O       0.491000
     40 H1          14.8220   -43.8690    28.8630 ha         1 O8O       0.142000
     41 H17         15.0590   -42.2040    33.5490 ha         1 O8O       0.135000
     42 H18         15.1970   -44.3700    34.1330 ho         1 O8O       0.483000
     43 H5          15.4000   -37.7960    28.4040 ha         1 O8O       0.124000
     44 H4          14.9650   -37.4280    26.2480 ho         1 O8O       0.480000
     45 H3          14.0370   -40.1270    24.8730 ho         1 O8O       0.486000
     46 H2          14.0820   -42.5030    27.4910 ha         1 O8O       0.141000
     47 H6          17.4340   -38.3910    29.9160 h1         1 O8O       0.074700
     48 H7          17.3230   -38.6910    31.6330 h1         1 O8O       0.074700
     49 H16         17.9820   -40.8750    32.5810 ha         1 O8O       0.119000
     50 H15         19.1820   -43.0120    32.2710 ha         1 O8O       0.136000
     51 H9          19.1280   -42.4050    27.9760 ha         1 O8O       0.136000
     52 H8          17.9240   -40.2710    28.3010 ha         1 O8O       0.119000
     53 H14         21.9590   -43.5980    27.7350 ha         1 O8O       0.130000
     54 H13         23.8680   -42.9010    26.7830 ho         1 O8O       0.481000
     55 H12         26.0680   -42.5100    29.0060 ho         1 O8O       0.491000
     56 H11         24.4330   -43.3970    32.0680 ha         1 O8O       0.138000
     57 H10         22.0570   -44.1170    32.0430 ha         1 O8O       0.145000
@<TRIPOS>BOND
     1     1     3 1   
     2     1     9 ar  
     3     1    11 ar  
     4     2     5 1   
     5     2    13 1   
     6     2    21 1   
     7     3    39 1   
     8     4     5 2   
     9     5     6 2   
    10     5     7 1   
    11     7     8 ar  
    12     7    10 ar  
    13     8     9 ar  
    14     8    20 1   
    15     9    40 1   
    16    10    11 ar  
    17    10    41 1   
    18    11    12 1   
    19    12    42 1   
    20    13    14 ar  
    21    13    20 ar  
    22    14    15 ar  
    23    14    43 1   
    24    15    16 1   
    25    15    17 ar  
    26    16    44 1   
    27    17    18 1   
    28    17    19 ar  
    29    18    45 1   
    30    19    20 ar  
    31    19    46 1   
    32    21    22 1   
    33    21    47 1   
    34    21    48 1   
    35    22    23 ar  
    36    22    27 ar  
    37    23    24 ar  
    38    23    49 1   
    39    24    25 ar  
    40    24    50 1   
    41    25    26 ar  
    42    25    28 1   
    43    26    27 ar  
    44    26    51 1   
    45    27    52 1   
    46    28    29 2   
    47    28    30 2   
    48    28    31 1   
    49    31    32 ar  
    50    31    38 ar  
    51    32    33 ar  
    52    32    53 1   
    53    33    34 1   
    54    33    35 ar  
    55    34    54 1   
    56    35    36 1   
    57    35    37 ar  
    58    36    55 1   
    59    37    38 ar  
    60    37    56 1   
    61    38    57 1   
@<TRIPOS>SUBSTRUCTURE
     1 O8O         1 TEMP              0 ****  ****    0 ROOT
