@<TRIPOS>MOLECULE
O8Q
   87    91     1     0     0
SMALL
abcg2


@<TRIPOS>ATOM
      1 C4          -9.2350    -4.1020    -0.0500 ca         1 O8Q      -0.106500
      2 C5         -10.1480    -4.9540    -0.6510 ca         1 O8Q      -0.102000
      3 C6          -7.2410    -1.1900     2.0500 cc         1 O8Q       0.301900
      4 N1          -8.1030    -2.1240     1.7600 nd         1 O8Q      -0.512800
      5 C7          -7.8580    -0.7910    -0.0400 cd         1 O8Q       0.332000
      6 C8          -7.0260    -0.3030     0.9700 cc         1 O8Q      -0.374600
      7 N2          -5.4120     1.1740     1.9230 ns         1 O8Q      -0.503900
      8 C9          -6.1320     0.8380     0.8320 c          1 O8Q       0.664700
      9 C10         -4.4650     2.2560     1.9210 c3         1 O8Q       0.151300
     10 C11         -3.1270     1.9360     1.2960 ca         1 O8Q      -0.073300
     11 C12         -2.7530     0.6440     0.9430 ca         1 O8Q      -0.113000
     12 N3           1.7510     1.9210    -0.0410 ns         1 O8Q      -0.485900
     13 C13         -1.5060     0.3970     0.3900 ca         1 O8Q      -0.067500
     14 C14         -0.5950     1.4310     0.2030 ca         1 O8Q      -0.150600
     15 C15         -0.9690     2.7280     0.5530 ca         1 O8Q      -0.067500
     16 N4           4.3920    -0.2990    -0.9450 ns         1 O8Q      -0.502900
     17 O2          -6.0320     1.4630    -0.2240 o          1 O8Q      -0.641100
     18 N5          -8.0800    -0.3250    -1.2900 nv         1 O8Q      -1.068000
     19 N           -8.4890    -1.8670     0.4820 na         1 O8Q       0.168000
     20 C3          -9.4110    -2.7270    -0.1510 ca         1 O8Q       0.006800
     21 C2         -10.4930    -2.2040    -0.8500 ca         1 O8Q      -0.106500
     22 C1         -11.3910    -3.0670    -1.4630 ca         1 O8Q      -0.102000
     23 C          -11.2240    -4.4410    -1.3640 ca         1 O8Q      -0.107000
     24 C16         -2.2220     2.9730     1.0850 ca         1 O8Q      -0.113000
     25 C17          0.7330     1.1150    -0.3950 c          1 O8Q       0.616700
     26 O1           0.8870     0.1790    -1.1670 o          1 O8Q      -0.602100
     27 C18          3.0890     1.6900    -0.5220 c3         1 O8Q       0.037700
     28 C28          4.0250     2.7750     0.0140 c3         1 O8Q      -0.088400
     29 C29          3.6990     4.1700    -0.5130 c3         1 O8Q      -0.072400
     30 C30          4.6430     5.2560     0.0010 c6         1 O8Q      -0.060700
     31 C35          4.4490     6.5550    -0.7830 c6         1 O8Q      -0.071900
     32 C34          5.3650     7.6690    -0.2880 c6         1 O8Q      -0.073400
     33 C33          5.1800     7.9170     1.2050 c6         1 O8Q      -0.075400
     34 C32          5.3830     6.6310     2.0000 c6         1 O8Q      -0.073400
     35 C31          4.4680     5.5180     1.4980 c6         1 O8Q      -0.071900
     36 C19          3.6000     0.3240    -0.0620 c          1 O8Q       0.591100
     37 O            3.3580    -0.1070     1.0540 o          1 O8Q      -0.598100
     38 C20          5.0640    -1.5500    -0.6710 c3         1 O8Q       0.104000
     39 C21          6.2620    -1.7220    -1.6020 c3         1 O8Q      -0.049100
     40 C22          6.9830    -3.0090    -1.3160 ca         1 O8Q      -0.079300
     41 C24          6.6120    -4.1910    -1.9510 ca         1 O8Q      -0.096000
     42 C25          7.2470    -5.3920    -1.6660 ca         1 O8Q      -0.101000
     43 C26          8.2680    -5.4070    -0.7290 ca         1 O8Q       0.121000
     44 CL           9.0740    -6.9000    -0.3670 cl         1 O8Q      -0.204000
     45 C27          8.6580    -4.2460    -0.0790 ca         1 O8Q      -0.101000
     46 C23          8.0110    -3.0560    -0.3780 ca         1 O8Q      -0.096000
     47 H1          -8.3900    -4.5000     0.4960 ha         1 O8Q       0.135000
     48 H2         -10.0110    -6.0240    -0.5690 ha         1 O8Q       0.120000
     49 H3          -6.7910    -1.1730     3.0320 h4         1 O8Q       0.033100
     50 H4          -5.4970     0.6330     2.7660 hn         1 O8Q       0.316500
     51 H5          -4.8950     3.1240     1.4180 h1         1 O8Q       0.061700
     52 H6          -4.3090     2.5510     2.9590 h1         1 O8Q       0.061700
     53 H7          -3.4350    -0.1820     1.0970 ha         1 O8Q       0.116500
     54 H8           1.6380     2.5290     0.7550 hn         1 O8Q       0.324500
     55 H9          -1.2360    -0.6140     0.1150 ha         1 O8Q       0.122500
     56 H10         -0.3010     3.5640     0.3860 ha         1 O8Q       0.122500
     57 H11          4.4470     0.0670    -1.8820 hn         1 O8Q       0.313500
     58 H12         -7.3970     0.3440    -1.6090 hn         1 O8Q       0.491000
     59 H13         -8.3740    -0.9860    -1.9920 hn         1 O8Q       0.491000
     60 H14        -10.6480    -1.1340    -0.9040 ha         1 O8Q       0.135000
     61 H15        -12.2330    -2.6580    -2.0050 ha         1 O8Q       0.120000
     62 H16        -11.9310    -5.1090    -1.8370 ha         1 O8Q       0.118000
     63 H17         -2.5040     3.9900     1.3330 ha         1 O8Q       0.116500
     64 H18          3.0880     1.7350    -1.6170 h1         1 O8Q       0.069700
     65 H19          3.9940     2.7480     1.1070 hc         1 O8Q       0.057200
     66 H20          5.0470     2.5180    -0.2730 hc         1 O8Q       0.057200
     67 H21          3.7440     4.1450    -1.6070 hc         1 O8Q       0.042200
     68 H22          2.6700     4.4470    -0.2590 hc         1 O8Q       0.042200
     69 H23          5.6760     4.9200    -0.1680 hc         1 O8Q       0.045700
     70 H24          4.6240     6.3720    -1.8470 hc         1 O8Q       0.038200
     71 H25          3.4040     6.8770    -0.6910 hc         1 O8Q       0.038200
     72 H26          6.4070     7.3900    -0.4810 hc         1 O8Q       0.038950
     73 H27          5.1790     8.5860    -0.8530 hc         1 O8Q       0.038950
     74 H28          5.8670     8.6930     1.5510 hc         1 O8Q       0.039200
     75 H29          4.1670     8.2930     1.3850 hc         1 O8Q       0.039200
     76 H30          6.4280     6.3110     1.9110 hc         1 O8Q       0.038950
     77 H31          5.2040     6.8100     3.0630 hc         1 O8Q       0.038950
     78 H32          3.4240     5.7980     1.6850 hc         1 O8Q       0.038200
     79 H33          4.6510     4.6070     2.0740 hc         1 O8Q       0.038200
     80 H34          5.3990    -1.5530     0.3670 h1         1 O8Q       0.059200
     81 H35          4.3780    -2.3950    -0.7900 h1         1 O8Q       0.059200
     82 H36          5.9210    -1.7110    -2.6400 hc         1 O8Q       0.051700
     83 H37          6.9390    -0.8750    -1.4770 hc         1 O8Q       0.051700
     84 H38          5.8160    -4.1800    -2.6850 ha         1 O8Q       0.118000
     85 H39          6.9500    -6.3000    -2.1730 ha         1 O8Q       0.130000
     86 H40          9.4580    -4.2660     0.6480 ha         1 O8Q       0.130000
     87 H41          8.3200    -2.1500     0.1290 ha         1 O8Q       0.118000
@<TRIPOS>BOND
     1     1     2 ar  
     2     1    20 ar  
     3     1    47 1   
     4     2    23 ar  
     5     2    48 1   
     6     3     4 2   
     7     3     6 1   
     8     3    49 1   
     9     4    19 1   
    10     5     6 2   
    11     5    18 1   
    12     5    19 1   
    13     6     8 1   
    14     7     8 1   
    15     7     9 1   
    16     7    50 1   
    17     8    17 2   
    18     9    10 1   
    19     9    51 1   
    20     9    52 1   
    21    10    11 ar  
    22    10    24 ar  
    23    11    13 ar  
    24    11    53 1   
    25    12    25 1   
    26    12    27 1   
    27    12    54 1   
    28    13    14 ar  
    29    13    55 1   
    30    14    15 ar  
    31    14    25 1   
    32    15    24 ar  
    33    15    56 1   
    34    16    36 1   
    35    16    38 1   
    36    16    57 1   
    37    18    58 1   
    38    18    59 1   
    39    19    20 1   
    40    20    21 ar  
    41    21    22 ar  
    42    21    60 1   
    43    22    23 ar  
    44    22    61 1   
    45    23    62 1   
    46    24    63 1   
    47    25    26 2   
    48    27    28 1   
    49    27    36 1   
    50    27    64 1   
    51    28    29 1   
    52    28    65 1   
    53    28    66 1   
    54    29    30 1   
    55    29    67 1   
    56    29    68 1   
    57    30    31 1   
    58    30    35 1   
    59    30    69 1   
    60    31    32 1   
    61    31    70 1   
    62    31    71 1   
    63    32    33 1   
    64    32    72 1   
    65    32    73 1   
    66    33    34 1   
    67    33    74 1   
    68    33    75 1   
    69    34    35 1   
    70    34    76 1   
    71    34    77 1   
    72    35    78 1   
    73    35    79 1   
    74    36    37 2   
    75    38    39 1   
    76    38    80 1   
    77    38    81 1   
    78    39    40 1   
    79    39    82 1   
    80    39    83 1   
    81    40    41 ar  
    82    40    46 ar  
    83    41    42 ar  
    84    41    84 1   
    85    42    43 ar  
    86    42    85 1   
    87    43    44 1   
    88    43    45 ar  
    89    45    46 ar  
    90    45    86 1   
    91    46    87 1   
@<TRIPOS>SUBSTRUCTURE
     1 O8Q         1 TEMP              0 ****  ****    0 ROOT
