@<TRIPOS>MOLECULE
O8Q
   87    91     1     0     0
SMALL
No Charge or Current Charge


@<TRIPOS>ATOM
      1 C4          -8.9350    -3.5700    -1.2060 ca         1 O8Q      -0.106500
      2 C5          -9.9200    -4.3050    -1.8880 ca         1 O8Q      -0.102000
      3 C6          -6.7790    -1.3690     1.7850 cc         1 O8Q       0.301900
      4 N1          -7.5020    -2.4510     1.5560 nd         1 O8Q      -0.512800
      5 C7          -8.0880    -0.6580     0.1470 cd         1 O8Q       0.332000
      6 C8          -7.0870    -0.2600     0.9650 cc         1 O8Q      -0.374600
      7 N2          -5.4590     1.1770     1.9370 ns         1 O8Q      -0.503900
      8 C9          -6.4450     1.0570     0.9880 c          1 O8Q       0.664700
      9 C10         -4.6410     2.3730     2.1410 c3         1 O8Q       0.151300
     10 C11         -3.3030     2.2610     1.4240 ca         1 O8Q      -0.073300
     11 C12         -3.1800     2.6650     0.0830 ca         1 O8Q      -0.113000
     12 N3           1.5730     1.4150     0.0220 ns         1 O8Q      -0.485900
     13 C13         -1.9470     2.5580    -0.5820 ca         1 O8Q      -0.067500
     14 C14         -0.8090     2.0410     0.0780 ca         1 O8Q      -0.150600
     15 C15         -0.9420     1.6350     1.4290 ca         1 O8Q      -0.067500
     16 N4           4.6920    -0.5060    -0.6770 ns         1 O8Q      -0.502900
     17 O2          -6.7450     1.9750     0.2400 o          1 O8Q      -0.641100
     18 N5          -8.7590     0.0190    -0.8370 nv         1 O8Q      -1.068000
     19 N           -8.3150    -1.9910     0.5360 na         1 O8Q       0.168000
     20 C3          -9.2950    -2.7200    -0.1410 ca         1 O8Q       0.006800
     21 C2         -10.6480    -2.6170     0.2400 ca         1 O8Q      -0.106500
     22 C1         -11.6330    -3.3530    -0.4430 ca         1 O8Q      -0.102000
     23 C          -11.2690    -4.1960    -1.5070 ca         1 O8Q      -0.107000
     24 C16         -2.1780     1.7440     2.0900 ca         1 O8Q      -0.113000
     25 C17          0.5050     1.9420    -0.6720 c          1 O8Q       0.616700
     26 O1           0.6180     2.3060    -1.8350 o          1 O8Q      -0.602100
     27 C18          2.9470     1.2490    -0.5080 c3         1 O8Q       0.037700
     28 C28          3.8540     2.4460    -0.1070 c3         1 O8Q      -0.088400
     29 C29          3.3860     3.8200    -0.6500 c3         1 O8Q      -0.072400
     30 C30          4.3700     5.0060    -0.4080 c6         1 O8Q      -0.060700
     31 C35          3.8670     6.2900    -1.1290 c6         1 O8Q      -0.071900
     32 C34          4.8320     7.4820    -0.9170 c6         1 O8Q      -0.073400
     33 C33          5.0540     7.7600     0.5890 c6         1 O8Q      -0.075400
     34 C32          5.5630     6.4930     1.3170 c6         1 O8Q      -0.073400
     35 C31          4.6030     5.2960     1.1050 c6         1 O8Q      -0.071900
     36 C19          3.5490    -0.1020    -0.0210 c          1 O8Q       0.591100
     37 O            3.0530    -0.7740     0.8760 o          1 O8Q      -0.598100
     38 C20          5.4270    -1.7350    -0.3730 c3         1 O8Q       0.104000
     39 C21          6.7860    -1.7850    -1.0930 c3         1 O8Q      -0.049100
     40 C22          7.5530    -3.0600    -0.7710 ca         1 O8Q      -0.079300
     41 C24          7.3860    -4.2100    -1.5680 ca         1 O8Q      -0.096000
     42 C25          8.0890    -5.3900    -1.2660 ca         1 O8Q      -0.101000
     43 C26          8.9620    -5.4240    -0.1660 ca         1 O8Q       0.121000
     44 Cl           9.8410    -6.9000     0.2110 cl         1 O8Q      -0.204000
     45 C27          9.1320    -4.2830     0.6340 ca         1 O8Q      -0.101000
     46 C23          8.4280    -3.1030     0.3330 ca         1 O8Q      -0.096000
     47 H1          -7.8910    -3.6590    -1.5020 ha         1 O8Q       0.135000
     48 H2          -9.6390    -4.9600    -2.7100 ha         1 O8Q       0.120000
     49 H3          -6.0260    -1.4210     2.5600 h4         1 O8Q       0.033100
     50 H4          -5.2710     0.3670     2.5100 hn         1 O8Q       0.316500
     51 H5          -5.1800     3.2620     1.7870 h1         1 O8Q       0.061700
     52 H6          -4.4710     2.5010     3.2190 h1         1 O8Q       0.061700
     53 H7          -4.0430     3.0620    -0.4460 ha         1 O8Q       0.116500
     54 H8           1.3900     1.0910     0.9630 hn         1 O8Q       0.324500
     55 H9          -1.8810     2.8790    -1.6200 ha         1 O8Q       0.122500
     56 H10         -0.1000     1.2320     1.9850 ha         1 O8Q       0.122500
     57 H11          5.0390     0.0980    -1.4140 hn         1 O8Q       0.313500
     58 H12         -8.4150     0.9380    -1.1150 hn         1 O8Q       0.491000
     59 H13         -9.3560    -0.4840    -1.4910 hn         1 O8Q       0.491000
     60 H14        -10.9330    -1.9660     1.0640 ha         1 O8Q       0.135000
     61 H15        -12.6760    -3.2700    -0.1470 ha         1 O8Q       0.120000
     62 H16        -12.0310    -4.7650    -2.0350 ha         1 O8Q       0.118000
     63 H17         -2.2590     1.4240     3.1270 ha         1 O8Q       0.116500
     64 H18          2.9020     1.1930    -1.6040 h1         1 O8Q       0.069700
     65 H19          3.9140     2.4840     0.9870 hc         1 O8Q       0.057200
     66 H20          4.8720     2.2600    -0.4710 hc         1 O8Q       0.057200
     67 H21          3.2130     3.7150    -1.7280 hc         1 O8Q       0.042200
     68 H22          2.4120     4.0650    -0.2080 hc         1 O8Q       0.042200
     69 H23          5.3290     4.7130    -0.8590 hc         1 O8Q       0.045700
     70 H24          3.7580     6.0980    -2.2050 hc         1 O8Q       0.038200
     71 H25          2.8680     6.5580    -0.7590 hc         1 O8Q       0.038200
     72 H26          5.7960     7.2700    -1.4010 hc         1 O8Q       0.038950
     73 H27          4.4290     8.3800    -1.4050 hc         1 O8Q       0.038950
     74 H28          5.7760     8.5790     0.7160 hc         1 O8Q       0.039200
     75 H29          4.1140     8.0980     1.0470 hc         1 O8Q       0.039200
     76 H30          6.5650     6.2320     0.9480 hc         1 O8Q       0.038950
     77 H31          5.6700     6.6980     2.3910 hc         1 O8Q       0.038950
     78 H32          3.6430     5.5020     1.5970 hc         1 O8Q       0.038200
     79 H33          5.0260     4.4140     1.6030 hc         1 O8Q       0.038200
     80 H34          5.5890    -1.7960     0.7120 h1         1 O8Q       0.059200
     81 H35          4.8170    -2.5970    -0.6770 h1         1 O8Q       0.059200
     82 H36          6.6230    -1.7060    -2.1750 hc         1 O8Q       0.051700
     83 H37          7.3770    -0.9070    -0.8050 hc         1 O8Q       0.051700
     84 H38          6.7100    -4.1910    -2.4200 ha         1 O8Q       0.118000
     85 H39          7.9590    -6.2750    -1.8830 ha         1 O8Q       0.130000
     86 H40          9.8060    -4.3130     1.4850 ha         1 O8Q       0.130000
     87 H41          8.5630    -2.2230     0.9580 ha         1 O8Q       0.118000
@<TRIPOS>BOND
     1     1     2 ar  
     2     1    20 ar  
     3     1    47 1   
     4     2    23 ar  
     5     2    48 1   
     6     3     4 2   
     7     3     6 1   
     8     3    49 1   
     9     4    19 1   
    10     5     6 2   
    11     5    18 1   
    12     5    19 1   
    13     6     8 1   
    14     7     8 1   
    15     7     9 1   
    16     7    50 1   
    17     8    17 2   
    18     9    10 1   
    19     9    51 1   
    20     9    52 1   
    21    10    11 ar  
    22    10    24 ar  
    23    11    13 ar  
    24    11    53 1   
    25    12    25 1   
    26    12    27 1   
    27    12    54 1   
    28    13    14 ar  
    29    13    55 1   
    30    14    15 ar  
    31    14    25 1   
    32    15    24 ar  
    33    15    56 1   
    34    16    36 1   
    35    16    38 1   
    36    16    57 1   
    37    18    58 1   
    38    18    59 1   
    39    19    20 1   
    40    20    21 ar  
    41    21    22 ar  
    42    21    60 1   
    43    22    23 ar  
    44    22    61 1   
    45    23    62 1   
    46    24    63 1   
    47    25    26 2   
    48    27    28 1   
    49    27    36 1   
    50    27    64 1   
    51    28    29 1   
    52    28    65 1   
    53    28    66 1   
    54    29    30 1   
    55    29    67 1   
    56    29    68 1   
    57    30    31 1   
    58    30    35 1   
    59    30    69 1   
    60    31    32 1   
    61    31    70 1   
    62    31    71 1   
    63    32    33 1   
    64    32    72 1   
    65    32    73 1   
    66    33    34 1   
    67    33    74 1   
    68    33    75 1   
    69    34    35 1   
    70    34    76 1   
    71    34    77 1   
    72    35    78 1   
    73    35    79 1   
    74    36    37 2   
    75    38    39 1   
    76    38    80 1   
    77    38    81 1   
    78    39    40 1   
    79    39    82 1   
    80    39    83 1   
    81    40    41 ar  
    82    40    46 ar  
    83    41    42 ar  
    84    41    84 1   
    85    42    43 ar  
    86    42    85 1   
    87    43    44 1   
    88    43    45 ar  
    89    45    46 ar  
    90    45    86 1   
    91    46    87 1   
@<TRIPOS>SUBSTRUCTURE
     1 O8Q         1 TEMP              0 ****  ****    0 ROOT
