@<TRIPOS>MOLECULE
O8R
   24    23     1     0     0
SMALL
abcg2


@<TRIPOS>ATOM
      1 N1         -27.1330   -23.3250    19.7260 n2         1 O8R      -0.265700
      2 C4         -27.8760   -23.1830    17.3940 c          1 O8R       0.518800
      3 C5         -28.9350   -21.6970    15.8820 c3         1 O8R       0.166600
      4 C6         -29.6650   -22.5990    14.9180 c3         1 O8R       0.128600
      5 C7         -31.6710   -23.7360    14.5790 c3         1 O8R       0.145900
      6 C1         -29.0510   -25.2350    20.5180 c3         1 O8R      -0.182100
      7 C2         -28.9660   -24.7090    19.1190 c          1 O8R       0.504800
      8 C3         -27.9320   -23.6890    18.8080 ce         1 O8R       0.274300
      9 O1         -29.6930   -25.0690    18.2200 o          1 O8R      -0.485100
     10 O2         -27.0780   -23.5780    16.5890 o          1 O8R      -0.463000
     11 O3         -28.8080   -22.2770    17.1910 os         1 O8R      -0.412100
     12 O4         -26.2460   -22.4040    19.3320 oh         1 O8R      -0.486000
     13 O5         -30.9420   -22.8810    15.4200 os         1 O8R      -0.440000
     14 H1         -27.9550   -21.4390    15.4770 h1         1 O8R       0.070200
     15 H2         -29.4920   -20.7750    16.0440 h1         1 O8R       0.070200
     16 H3         -29.0970   -23.5210    14.7360 h1         1 O8R       0.036700
     17 H4         -29.7150   -22.0670    13.9560 h1         1 O8R       0.036700
     18 H5         -32.6360   -23.9260    15.0470 h1         1 O8R       0.030033
     19 H6         -31.8460   -23.2930    13.5910 h1         1 O8R       0.030033
     20 H7         -31.1640   -24.6970    14.4300 h1         1 O8R       0.030033
     21 H8         -29.8320   -25.9890    20.5860 hc         1 O8R       0.069700
     22 H9         -28.1010   -25.6730    20.8240 hc         1 O8R       0.069700
     23 H10        -29.2700   -24.4290    21.2190 hc         1 O8R       0.069700
     24 H11        -25.7150   -22.2110    20.1160 ho         1 O8R       0.482000
@<TRIPOS>BOND
     1     1     8 2   
     2     1    12 1   
     3     2     8 1   
     4     2    10 2   
     5     2    11 1   
     6     3     4 1   
     7     3    11 1   
     8     3    14 1   
     9     3    15 1   
    10     4    13 1   
    11     4    16 1   
    12     4    17 1   
    13     5    13 1   
    14     5    18 1   
    15     5    19 1   
    16     5    20 1   
    17     6     7 1   
    18     6    21 1   
    19     6    22 1   
    20     6    23 1   
    21     7     8 1   
    22     7     9 2   
    23    12    24 1   
@<TRIPOS>SUBSTRUCTURE
     1 O8R         1 TEMP              0 ****  ****    0 ROOT
