@<TRIPOS>MOLECULE
O8R
   24    23     1     0     0
SMALL
No Charge or Current Charge


@<TRIPOS>ATOM
      1 N1         -26.8880   -24.3250    18.9570 n2         1 O8R      -0.265700
      2 C4         -28.0780   -22.9060    17.4070 c          1 O8R       0.518800
      3 C5         -29.5180   -21.5440    15.9790 c3         1 O8R       0.166600
      4 C6         -29.7350   -22.5370    14.8060 c3         1 O8R       0.128600
      5 C7         -31.2770   -24.2270    14.0130 c3         1 O8R       0.145900
      6 C1         -28.9500   -24.7090    20.9290 c3         1 O8R      -0.182100
      7 C2         -29.1560   -23.8250    19.6850 c          1 O8R       0.504800
      8 C3         -28.0060   -23.6940    18.7020 ce         1 O8R       0.274300
      9 O1         -30.2450   -23.2750    19.5490 o          1 O8R      -0.485100
     10 O2         -27.1510   -22.8230    16.6050 o          1 O8R      -0.463000
     11 O3         -29.2820   -22.2660    17.2120 os         1 O8R      -0.412100
     12 O4         -25.9700   -23.5840    19.7220 oh         1 O8R      -0.486000
     13 O5         -30.9560   -23.2680    15.0340 os         1 O8R      -0.440000
     14 H1         -28.6780   -20.8760    15.7470 h1         1 O8R       0.070200
     15 H2         -30.4150   -20.9190    16.0740 h1         1 O8R       0.070200
     16 H3         -28.8800   -23.2190    14.7200 h1         1 O8R       0.036700
     17 H4         -29.8040   -21.9660    13.8710 h1         1 O8R       0.036700
     18 H5         -32.2160   -24.7420    14.2540 h1         1 O8R       0.030033
     19 H6         -31.3980   -23.7340    13.0390 h1         1 O8R       0.030033
     20 H7         -30.4860   -24.9830    13.9250 h1         1 O8R       0.030033
     21 H8         -29.8450   -24.7690    21.5580 hc         1 O8R       0.069700
     22 H9         -28.6110   -25.7040    20.6170 hc         1 O8R       0.069700
     23 H10        -28.0910   -24.3350    21.4980 hc         1 O8R       0.069700
     24 H11        -25.1810   -24.1720    19.8170 ho         1 O8R       0.482000
@<TRIPOS>BOND
     1     1     8 2   
     2     1    12 1   
     3     2     8 1   
     4     2    10 2   
     5     2    11 1   
     6     3     4 1   
     7     3    11 1   
     8     3    14 1   
     9     3    15 1   
    10     4    13 1   
    11     4    16 1   
    12     4    17 1   
    13     5    13 1   
    14     5    18 1   
    15     5    19 1   
    16     5    20 1   
    17     6     7 1   
    18     6    21 1   
    19     6    22 1   
    20     6    23 1   
    21     7     8 1   
    22     7     9 2   
    23    12    24 1   
@<TRIPOS>SUBSTRUCTURE
     1 O8R         1 TEMP              0 ****  ****    0 ROOT
