@<TRIPOS>MOLECULE
O8S
   93    96     1     0     0
SMALL
No Charge or Current Charge


@<TRIPOS>ATOM
      1 C13        254.0480   261.6490   248.9440 ce         1 O8S      -0.045200
      2 C15        253.1490   260.6700   248.3010 ce         1 O8S      -0.160000
      3 C17        251.4470   259.8950   246.5740 c3         1 O8S       0.140200
      4 C20        252.6230   257.9650   243.5280 ce         1 O8S      -0.304200
      5 C21        252.9170   256.7230   243.0690 c2         1 O8S      -0.136200
      6 C22        253.8310   256.3580   241.9050 c3         1 O8S      -0.050500
      7 C24        255.2120   255.8000   242.4010 c3         1 O8S       0.184300
      8 C26        255.5050   254.1170   240.4480 c3         1 O8S      -0.091100
      9 C02        255.5300   262.2390   250.9720 c3         1 O8S       0.223500
     10 C03        256.0960   261.5390   252.2220 c3         1 O8S      -0.219400
     11 C04        257.1630   260.4990   251.8620 c          1 O8S       0.585100
     12 C05        256.7730   259.0290   251.9300 c3         1 O8S      -0.205700
     13 C06        257.0920   258.2950   250.6760 cc         1 O8S       0.445300
     14 C08        257.3230   257.6640   248.6440 cd         1 O8S       0.179500
     15 C09        257.8710   256.7140   249.4690 cc         1 O8S       0.166900
     16 C12        254.6040   261.3640   250.1470 c2         1 O8S      -0.226200
     17 C14        254.3430   262.9390   248.1830 c3         1 O8S      -0.060900
     18 C16        252.3680   260.9020   247.2190 c2         1 O8S      -0.234200
     19 C19        251.8070   258.2180   244.7440 c          1 O8S       0.602300
     20 C23        253.9580   257.5030   240.8650 c3         1 O8S      -0.086100
     21 C25        256.1650   255.2410   241.2960 c3         1 O8S      -0.094700
     22 C27        257.5060   254.7540   241.9270 c3         1 O8S       0.181600
     23 C29        259.0600   255.2270   240.1250 c          1 O8S       0.647100
     24 C31        260.6330   255.0250   238.1130 ca         1 O8S       0.031000
     25 C32        261.2480   254.0630   237.2930 ca         1 O8S      -0.165500
     26 C33        262.0960   254.4460   236.2400 ca         1 O8S      -0.028000
     27 C34        262.3400   255.8110   235.9830 ca         1 O8S      -0.233300
     28 C35        263.2720   256.2350   234.8430 c3         1 O8S       0.362300
     29 C39        261.7320   256.7790   236.8100 ca         1 O8S      -0.028000
     30 C40        260.8850   256.3900   237.8620 ca         1 O8S      -0.165500
     31 C43        255.7930   257.0640   244.4100 c          1 O8S       0.585100
     32 C44        256.6430   258.2970   244.8440 c5         1 O8S       0.054700
     33 C45        255.8800   259.5940   244.4470 c5         1 O8S      -0.079400
     34 C46        256.4860   260.6320   245.4190 c5         1 O8S      -0.103400
     35 C47        256.4810   259.8540   246.7590 c5         1 O8S       0.113000
     36 C49        257.3530   257.4620   247.1460 c          1 O8S       0.563600
     37 F36        263.2690   255.3510   233.8190 f          1 O8S      -0.115667
     38 F37        264.5510   256.3420   235.2690 f          1 O8S      -0.115667
     39 F38        262.9290   257.4340   234.3180 f          1 O8S      -0.115667
     40 N07        256.8030   258.6800   249.4480 nd         1 O8S      -0.644000
     41 N18        252.0370   259.4420   245.3200 ns         1 O8S      -0.511900
     42 N30        259.7890   254.5620   239.1570 ns         1 O8S      -0.141000
     43 N48        256.8310   258.4860   246.3130 n          1 O8S      -0.389800
     44 O01        254.7910   263.3760   251.4140 oh         1 O8S      -0.650000
     45 O10        257.7350   257.1010   250.7640 os         1 O8S      -0.250000
     46 O11        258.3130   260.8390   251.6180 o          1 O8S      -0.508100
     47 O28        258.4050   254.3000   240.8920 os         1 O8S      -0.458100
     48 O41        259.0040   256.4370   240.2880 o          1 O8S      -0.511000
     49 O42        255.9320   256.8680   243.0550 os         1 O8S      -0.458100
     50 O50        257.8190   256.4450   246.6390 o          1 O8S      -0.602100
     51 O51        255.1170   256.3510   245.1420 o          1 O8S      -0.449000
     52 O52        251.0640   257.3840   245.2400 o          1 O8S      -0.587100
     53 H151       253.1210   259.6820   248.7640 ha         1 O8S       0.179000
     54 H172       250.4690   260.3500   246.3660 h1         1 O8S       0.058700
     55 H171       251.2940   259.0370   247.2430 h1         1 O8S       0.058700
     56 H201       253.0750   258.8440   243.0750 ha         1 O8S       0.174000
     57 H211       252.4950   255.8500   243.5750 ha         1 O8S       0.207000
     58 H221       253.3240   255.5360   241.3870 hc         1 O8S       0.067700
     59 H241       255.0170   254.9720   243.0980 h1         1 O8S       0.071700
     60 H263       254.6430   254.4930   239.8860 hc         1 O8S       0.041033
     61 H262       256.2070   253.7100   239.7110 hc         1 O8S       0.041033
     62 H261       255.1690   253.2910   241.0880 hc         1 O8S       0.041033
     63 H021       256.3740   262.5630   250.3450 h1         1 O8S       0.051700
     64 H031       255.2640   261.0690   252.7600 hc         1 O8S       0.069700
     65 H032       256.5710   262.2920   252.8610 hc         1 O8S       0.069700
     66 H052       255.7090   258.9220   252.1610 hc         1 O8S       0.095200
     67 H051       257.3380   258.5810   252.7540 hc         1 O8S       0.095200
     68 H091       258.3660   255.7740   249.2680 h4         1 O8S       0.078100
     69 H122       254.3570   260.4180   250.6280 ha         1 O8S       0.182000
     70 H141       255.2540   263.4350   248.5320 hc         1 O8S       0.045033
     71 H142       254.4870   262.7510   247.1130 hc         1 O8S       0.045033
     72 H143       253.5180   263.6530   248.2890 hc         1 O8S       0.045033
     73 H161       252.3430   261.8790   246.7350 ha         1 O8S       0.166000
     74 H231       252.9670   257.8800   240.5860 hc         1 O8S       0.041033
     75 H232       254.5450   258.3400   241.2620 hc         1 O8S       0.041033
     76 H233       254.4440   257.1520   239.9480 hc         1 O8S       0.041033
     77 H251       256.4010   256.0690   240.6190 hc         1 O8S       0.081700
     78 H271       257.2870   253.9280   242.6160 h1         1 O8S       0.076200
     79 H272       257.9720   255.5540   242.5200 h1         1 O8S       0.076200
     80 H321       261.0720   253.0040   237.4720 ha         1 O8S       0.137000
     81 H331       262.5620   253.6760   235.6280 ha         1 O8S       0.130000
     82 H391       261.9150   257.8390   236.6430 ha         1 O8S       0.130000
     83 H401       260.4360   257.1690   238.4710 ha         1 O8S       0.137000
     84 H441       257.6140   258.2360   244.3360 h1         1 O8S       0.095700
     85 H451       256.0180   259.8600   243.3930 hc         1 O8S       0.060200
     86 H452       254.8050   259.4940   244.6240 hc         1 O8S       0.060200
     87 H462       257.5070   260.9010   245.1230 hc         1 O8S       0.054200
     88 H461       255.9040   261.5580   245.4690 hc         1 O8S       0.054200
     89 H471       257.2140   260.2760   247.4590 h1         1 O8S       0.069200
     90 H472       255.4910   259.8640   247.2310 h1         1 O8S       0.069200
     91 H181       252.6880   260.0560   244.8500 hn         1 O8S       0.308500
     92 H301       259.6990   253.5570   239.2030 hn         1 O8S       0.169000
     93 H011       255.4260   263.9740   251.8620 ho         1 O8S       0.443000
@<TRIPOS>BOND
     1     1     2 1   
     2     1    16 2   
     3     1    17 1   
     4     2    18 2   
     5     2    53 1   
     6     3    18 1   
     7     3    41 1   
     8     3    54 1   
     9     3    55 1   
    10     4     5 2   
    11     4    19 1   
    12     4    56 1   
    13     5     6 1   
    14     5    57 1   
    15     6     7 1   
    16     6    20 1   
    17     6    58 1   
    18     7    21 1   
    19     7    49 1   
    20     7    59 1   
    21     8    21 1   
    22     8    60 1   
    23     8    61 1   
    24     8    62 1   
    25     9    10 1   
    26     9    16 1   
    27     9    44 1   
    28     9    63 1   
    29    10    11 1   
    30    10    64 1   
    31    10    65 1   
    32    11    12 1   
    33    11    46 2   
    34    12    13 1   
    35    12    66 1   
    36    12    67 1   
    37    13    40 2   
    38    13    45 1   
    39    14    15 2   
    40    14    36 1   
    41    14    40 1   
    42    15    45 1   
    43    15    68 1   
    44    16    69 1   
    45    17    70 1   
    46    17    71 1   
    47    17    72 1   
    48    18    73 1   
    49    19    41 1   
    50    19    52 2   
    51    20    74 1   
    52    20    75 1   
    53    20    76 1   
    54    21    22 1   
    55    21    77 1   
    56    22    47 1   
    57    22    78 1   
    58    22    79 1   
    59    23    42 1   
    60    23    47 1   
    61    23    48 2   
    62    24    25 ar  
    63    24    30 ar  
    64    24    42 1   
    65    25    26 ar  
    66    25    80 1   
    67    26    27 ar  
    68    26    81 1   
    69    27    28 1   
    70    27    29 ar  
    71    28    37 1   
    72    28    38 1   
    73    28    39 1   
    74    29    30 ar  
    75    29    82 1   
    76    30    83 1   
    77    31    32 1   
    78    31    49 1   
    79    31    51 2   
    80    32    33 1   
    81    32    43 1   
    82    32    84 1   
    83    33    34 1   
    84    33    85 1   
    85    33    86 1   
    86    34    35 1   
    87    34    87 1   
    88    34    88 1   
    89    35    43 1   
    90    35    89 1   
    91    35    90 1   
    92    36    43 1   
    93    36    50 2   
    94    41    91 1   
    95    42    92 1   
    96    44    93 1   
@<TRIPOS>SUBSTRUCTURE
     1 O8S         1 TEMP              0 ****  ****    0 ROOT
