@<TRIPOS>MOLECULE
O8S
   93    96     1     0     0
SMALL
bcc


@<TRIPOS>ATOM
      1 C13        253.9150   261.6640   249.3050 ce         1 O8S      -0.045200
      2 C15        252.9520   260.9730   248.4420 ce         1 O8S      -0.110000
      3 C17        251.7300   260.5200   246.3090 c3         1 O8S       0.140200
      4 C20        252.8950   258.0620   243.7160 ce         1 O8S      -0.254200
      5 C21        253.2070   256.7910   243.4780 c2         1 O8S      -0.086200
      6 C22        253.7960   256.2570   242.2080 c3         1 O8S      -0.050500
      7 C24        255.2190   255.7480   242.5230 c3         1 O8S       0.161100
      8 C26        255.1640   254.0100   240.6910 c3         1 O8S      -0.091100
      9 C02        254.6810   262.0490   251.7120 c3         1 O8S       0.200300
     10 C03        255.5720   260.9730   252.3610 c3         1 O8S      -0.219400
     11 C04        256.5230   260.3830   251.3540 c          1 O8S       0.585100
     12 C05        256.4730   258.8780   251.1870 c3         1 O8S      -0.205700
     13 C06        257.2620   258.4290   250.0210 cc         1 O8S       0.489700
     14 C08        257.9760   257.9890   248.0810 cd         1 O8S       0.179500
     15 C09        258.9940   257.7700   248.9420 cc         1 O8S       0.211300
     16 C12        253.8440   261.4430   250.6270 c2         1 O8S      -0.176200
     17 C14        254.8840   262.6010   248.6480 c3         1 O8S      -0.060900
     18 C16        252.8360   261.1270   247.1200 c2         1 O8S      -0.184200
     19 C19        252.4390   258.5190   245.0540 c          1 O8S       0.669300
     20 C23        253.7510   257.2350   241.0410 c3         1 O8S      -0.086100
     21 C25        255.9680   255.1350   241.3370 c3         1 O8S      -0.094700
     22 C27        257.3180   254.6130   241.8290 c3         1 O8S       0.158400
     23 C29        258.8650   255.0030   240.0840 c          1 O8S       0.763100
     24 C31        260.4390   254.8870   238.1770 ca         1 O8S       0.123600
     25 C32        260.9510   254.0100   237.2180 ca         1 O8S      -0.183500
     26 C33        261.8340   254.4500   236.2510 ca         1 O8S      -0.046000
     27 C34        262.2280   255.7820   236.2170 ca         1 O8S      -0.233300
     28 C35        263.1910   256.2830   235.1950 c3         1 O8S       0.726200
     29 C39        261.7310   256.6540   237.1770 ca         1 O8S      -0.046000
     30 C40        260.8460   256.2240   238.1490 ca         1 O8S      -0.183500
     31 C43        256.1750   257.0830   244.2750 c          1 O8S       0.634100
     32 C44        256.9900   258.3450   244.4810 c5         1 O8S       0.054700
     33 C45        256.2420   259.5950   243.9780 c5         1 O8S      -0.079400
     34 C46        256.5960   260.6580   245.0080 c5         1 O8S      -0.103400
     35 C47        256.6170   259.8710   246.3080 c5         1 O8S       0.113000
     36 C49        257.9770   257.7760   246.6170 c          1 O8S       0.630600
     37 F36        263.3020   255.4610   234.1460 f          1 O8S      -0.236967
     38 F37        264.4280   256.4330   235.6980 f          1 O8S      -0.236967
     39 F38        262.8330   257.4830   234.7160 f          1 O8S      -0.236967
     40 N07        256.8750   258.4030   248.7970 nd         1 O8S      -0.644000
     41 N18        252.1850   259.8410   245.1160 ns         1 O8S      -0.578900
     42 N30        259.5530   254.3520   239.1050 ns         1 O8S      -0.467100
     43 N48        257.1980   258.5970   245.8910 n          1 O8S      -0.456800
     44 O01        253.7880   262.5900   252.6620 oh         1 O8S      -0.587800
     45 O10        258.5430   258.0610   250.1790 os         1 O8S      -0.338800
     46 O11        257.2800   261.0650   250.7060 o          1 O8S      -0.508100
     47 O28        258.1230   254.1220   240.7560 os         1 O8S      -0.434900
     48 O41        258.9140   256.1870   240.3210 o          1 O8S      -0.560000
     49 O42        256.0110   256.8600   242.9770 os         1 O8S      -0.434900
     50 O50        258.6510   256.8840   246.1190 o          1 O8S      -0.602100
     51 O51        255.7300   256.4000   245.1570 o          1 O8S      -0.498000
     52 O52        252.3130   257.7700   246.0140 o          1 O8S      -0.587100
     53 H151       252.2510   260.3130   248.9480 ha         1 O8S       0.129000
     54 H172       251.0550   261.3160   245.9850 h1         1 O8S       0.058700
     55 H171       251.1390   259.8330   246.9150 h1         1 O8S       0.058700
     56 H201       253.0040   258.8150   242.9430 ha         1 O8S       0.124000
     57 H211       253.0790   256.0660   244.2760 ha         1 O8S       0.157000
     58 H221       253.2170   255.3660   241.9440 hc         1 O8S       0.067700
     59 H241       255.1450   255.0010   243.3200 h1         1 O8S       0.071700
     60 H263       254.2460   254.3730   240.2300 hc         1 O8S       0.041033
     61 H262       255.7420   253.5250   239.9050 hc         1 O8S       0.041033
     62 H261       254.8950   253.2480   241.4260 hc         1 O8S       0.041033
     63 H021       255.3340   262.8290   251.3080 h1         1 O8S       0.051700
     64 H031       254.9470   260.1990   252.8090 hc         1 O8S       0.069700
     65 H032       256.1640   261.4260   253.1640 hc         1 O8S       0.069700
     66 H052       255.4310   258.5740   251.0590 hc         1 O8S       0.095200
     67 H051       256.8130   258.4160   252.1190 hc         1 O8S       0.095200
     68 H091       260.0150   257.4430   248.8390 h4         1 O8S       0.078100
     69 H122       253.0990   260.7360   250.9850 ha         1 O8S       0.132000
     70 H141       255.4920   263.1540   249.3570 hc         1 O8S       0.045033
     71 H142       255.5650   262.0560   247.9910 hc         1 O8S       0.045033
     72 H143       254.3580   263.3260   248.0240 hc         1 O8S       0.045033
     73 H161       253.5170   261.7750   246.5750 ha         1 O8S       0.116000
     74 H231       252.7340   257.5920   240.8800 hc         1 O8S       0.041033
     75 H232       254.3890   258.1030   241.2060 hc         1 O8S       0.041033
     76 H233       254.0720   256.7580   240.1150 hc         1 O8S       0.041033
     77 H251       256.1450   255.9220   240.5970 hc         1 O8S       0.081700
     78 H271       257.1680   253.7560   242.4870 h1         1 O8S       0.076200
     79 H272       257.8700   255.3710   242.3840 h1         1 O8S       0.076200
     80 H321       260.6510   252.9690   237.2250 ha         1 O8S       0.155000
     81 H331       262.2020   253.7370   235.5250 ha         1 O8S       0.148000
     82 H391       262.0230   257.6970   237.1810 ha         1 O8S       0.148000
     83 H401       260.4820   256.9330   238.8730 ha         1 O8S       0.155000
     84 H441       257.9440   258.2360   243.9540 h1         1 O8S       0.095700
     85 H451       256.5330   259.8540   242.9620 hc         1 O8S       0.060200
     86 H452       255.1640   259.4280   243.9820 hc         1 O8S       0.060200
     87 H462       257.5840   261.0780   244.8080 hc         1 O8S       0.054200
     88 H461       255.8780   261.4770   245.0340 hc         1 O8S       0.054200
     89 H471       257.2200   260.3460   247.0790 h1         1 O8S       0.069200
     90 H472       255.6060   259.7360   246.7010 h1         1 O8S       0.069200
     91 H181       252.3080   260.3960   244.2850 hn         1 O8S       0.308500
     92 H301       259.3910   253.3580   239.0330 hn         1 O8S       0.335500
     93 H011       254.3040   263.0110   253.3570 ho         1 O8S       0.404000
@<TRIPOS>BOND
     1     1     2 1   
     2     1    16 2   
     3     1    17 1   
     4     2    18 2   
     5     2    53 1   
     6     3    18 1   
     7     3    41 1   
     8     3    54 1   
     9     3    55 1   
    10     4     5 2   
    11     4    19 1   
    12     4    56 1   
    13     5     6 1   
    14     5    57 1   
    15     6     7 1   
    16     6    20 1   
    17     6    58 1   
    18     7    21 1   
    19     7    49 1   
    20     7    59 1   
    21     8    21 1   
    22     8    60 1   
    23     8    61 1   
    24     8    62 1   
    25     9    10 1   
    26     9    16 1   
    27     9    44 1   
    28     9    63 1   
    29    10    11 1   
    30    10    64 1   
    31    10    65 1   
    32    11    12 1   
    33    11    46 2   
    34    12    13 1   
    35    12    66 1   
    36    12    67 1   
    37    13    40 2   
    38    13    45 1   
    39    14    15 2   
    40    14    36 1   
    41    14    40 1   
    42    15    45 1   
    43    15    68 1   
    44    16    69 1   
    45    17    70 1   
    46    17    71 1   
    47    17    72 1   
    48    18    73 1   
    49    19    41 1   
    50    19    52 2   
    51    20    74 1   
    52    20    75 1   
    53    20    76 1   
    54    21    22 1   
    55    21    77 1   
    56    22    47 1   
    57    22    78 1   
    58    22    79 1   
    59    23    42 1   
    60    23    47 1   
    61    23    48 2   
    62    24    25 ar  
    63    24    30 ar  
    64    24    42 1   
    65    25    26 ar  
    66    25    80 1   
    67    26    27 ar  
    68    26    81 1   
    69    27    28 1   
    70    27    29 ar  
    71    28    37 1   
    72    28    38 1   
    73    28    39 1   
    74    29    30 ar  
    75    29    82 1   
    76    30    83 1   
    77    31    32 1   
    78    31    49 1   
    79    31    51 2   
    80    32    33 1   
    81    32    43 1   
    82    32    84 1   
    83    33    34 1   
    84    33    85 1   
    85    33    86 1   
    86    34    35 1   
    87    34    87 1   
    88    34    88 1   
    89    35    43 1   
    90    35    89 1   
    91    35    90 1   
    92    36    43 1   
    93    36    50 2   
    94    41    91 1   
    95    42    92 1   
    96    44    93 1   
@<TRIPOS>SUBSTRUCTURE
     1 O8S         1 TEMP              0 ****  ****    0 ROOT
