@<TRIPOS>MOLECULE
O8T
   87    91     1     0     0
SMALL
bcc


@<TRIPOS>ATOM
      1 C4          -8.9560     2.1830     1.1560 ca         1 O8T      -0.123500
      2 C5          -9.9550     2.4760     2.0710 ca         1 O8T      -0.120500
      3 C6          -6.6000     0.8260    -1.9320 cc         1 O8T       0.367200
      4 N1          -7.6380     1.3020    -1.3010 nd         1 O8T      -0.513800
      5 C7          -6.7360    -0.3440    -0.0570 cd         1 O8T       0.243300
      6 C8          -5.9700    -0.2180    -1.2170 cc         1 O8T      -0.437900
      7 N2          -4.1780    -0.7690    -2.6980 ns         1 O8T      -0.572900
      8 C9          -4.7720    -0.9940    -1.5080 c          1 O8T       0.732700
      9 C10         -2.9590    -1.4370    -3.0760 c3         1 O8T       0.155300
     10 C11         -1.7430    -0.9690    -2.3150 ca         1 O8T      -0.072300
     11 C12         -1.5840     0.3670    -1.9590 ca         1 O8T      -0.126500
     12 N3           2.9110    -0.3090    -0.4280 ns         1 O8T      -0.549900
     13 C13         -0.4460     0.7900    -1.2950 ca         1 O8T      -0.087500
     14 C14          0.5740    -0.1090    -0.9910 ca         1 O8T      -0.146600
     15 C15          0.4150    -1.4480    -1.3400 ca         1 O8T      -0.087500
     16 N4           5.2990     2.2100     0.4550 ns         1 O8T      -0.564900
     17 O2          -4.3210    -1.8150    -0.7100 o          1 O8T      -0.642100
     18 N5          -6.6120    -1.2030     0.9810 nv         1 O8T      -0.820200
     19 N           -7.7250     0.5710    -0.1590 na         1 O8T       0.117300
     20 C3          -8.7370     0.8620     0.7810 ca         1 O8T       0.006800
     21 C2          -9.5120    -0.1620     1.3140 ca         1 O8T      -0.123500
     22 C1         -10.4980     0.1420     2.2430 ca         1 O8T      -0.120500
     23 C          -10.7230     1.4580     2.6220 ca         1 O8T      -0.125000
     24 C16         -0.7350    -1.8690    -1.9900 ca         1 O8T      -0.126500
     25 C17          1.7760     0.3970    -0.2690 c          1 O8T       0.682700
     26 O1           1.7280     1.3940     0.4390 o          1 O8T      -0.603100
     27 C18          4.1400     0.1120     0.1930 c3         1 O8T       0.032700
     28 C26          5.2190    -0.9550     0.0010 c3         1 O8T      -0.086400
     29 C27          4.8680    -2.2880     0.6540 c3         1 O8T      -0.071400
     30 C28          6.0000    -3.3140     0.6070 c6         1 O8T      -0.061700
     31 C33          5.6550    -4.5340     1.4610 c6         1 O8T      -0.071400
     32 C32          6.7560    -5.5880     1.4390 c6         1 O8T      -0.072900
     33 C31          7.0900    -6.0120     0.0130 c6         1 O8T      -0.074400
     34 C30          7.4440    -4.8040    -0.8480 c6         1 O8T      -0.072900
     35 C29          6.3400    -3.7500    -0.8190 c6         1 O8T      -0.071400
     36 C19          4.6200     1.4380    -0.4030 c          1 O8T       0.659100
     37 O            4.4330     1.7090    -1.5790 o          1 O8T      -0.602100
     38 C20          5.9430     3.4650     0.1190 c6         1 O8T       0.108700
     39 C25          5.2770     4.6340     0.8420 c6         1 O8T      -0.089400
     40 C24          5.9660     5.9540     0.5070 c6         1 O8T      -0.071900
     41 C23          7.4580     5.8970     0.8180 c6         1 O8T      -0.077400
     42 C22          8.1230     4.7280     0.1000 c6         1 O8T      -0.071900
     43 C21          7.4370     3.4060     0.4320 c6         1 O8T      -0.089400
     44 H1          -8.3480     2.9720     0.7350 ha         1 O8T       0.153000
     45 H2         -10.1260     3.5040     2.3620 ha         1 O8T       0.137500
     46 H3          -6.3240     1.2460    -2.8880 h4         1 O8T       0.032100
     47 H4          -4.5690    -0.1020    -3.3400 hn         1 O8T       0.316500
     48 H5          -3.0660    -2.5180    -2.9670 h1         1 O8T       0.056700
     49 H6          -2.8100    -1.2460    -4.1410 h1         1 O8T       0.056700
     50 H7          -2.3590     1.0870    -2.1930 ha         1 O8T       0.133500
     51 H8           2.9720    -0.9760    -1.1800 hn         1 O8T       0.323500
     52 H9          -0.3440     1.8320    -1.0190 ha         1 O8T       0.141000
     53 H10          1.1640    -2.1850    -1.0810 ha         1 O8T       0.141000
     54 H11          5.3580     1.9110     1.4170 hn         1 O8T       0.308500
     55 H12         -6.9820    -0.9200     1.8750 hn         1 O8T       0.435800
     56 H13         -5.7170    -1.6650     1.0280 hn         1 O8T       0.435800
     57 H14         -9.3620    -1.1860     0.9990 ha         1 O8T       0.153000
     58 H15        -11.1020    -0.6540     2.6560 ha         1 O8T       0.137500
     59 H16        -11.4980     1.6890     3.3410 ha         1 O8T       0.136000
     60 H17         -0.8510    -2.9180    -2.2370 ha         1 O8T       0.133500
     61 H18          3.9640     0.2390     1.2660 h1         1 O8T       0.073700
     62 H19          5.4100    -1.0810    -1.0690 hc         1 O8T       0.055200
     63 H20          6.1490    -0.5790     0.4360 hc         1 O8T       0.055200
     64 H21          4.6030    -2.1040     1.7000 hc         1 O8T       0.042700
     65 H22          3.9760    -2.7210     0.1880 hc         1 O8T       0.042700
     66 H23          6.8960    -2.8450     1.0370 hc         1 O8T       0.044700
     67 H24          5.4570    -4.2170     2.4900 hc         1 O8T       0.038450
     68 H25          4.7210    -4.9750     1.0900 hc         1 O8T       0.038450
     69 H26          7.6560    -5.1810     1.9150 hc         1 O8T       0.038700
     70 H27          6.4570    -6.4550     2.0330 hc         1 O8T       0.038700
     71 H28          7.9120    -6.7310     0.0120 hc         1 O8T       0.038700
     72 H29          6.2260    -6.5260    -0.4230 hc         1 O8T       0.038700
     73 H30          8.3760    -4.3600    -0.4810 hc         1 O8T       0.038700
     74 H31          7.6360    -5.1150    -1.8780 hc         1 O8T       0.038700
     75 H32          5.4360    -4.1560    -1.2910 hc         1 O8T       0.038450
     76 H33          6.6410    -2.8900    -1.4230 hc         1 O8T       0.038450
     77 H34          5.8190     3.6040    -0.9570 h1         1 O8T       0.083700
     78 H35          4.2180     4.6750     0.5760 hc         1 O8T       0.044700
     79 H36          5.3260     4.4630     1.9240 hc         1 O8T       0.044700
     80 H37          5.8250     6.1760    -0.5560 hc         1 O8T       0.041950
     81 H38          5.4920     6.7690     1.0570 hc         1 O8T       0.041950
     82 H39          7.9380     6.8370     0.5340 hc         1 O8T       0.039200
     83 H40          7.5980     5.7880     1.8990 hc         1 O8T       0.039200
     84 H41          8.0780     4.8950    -0.9820 hc         1 O8T       0.041950
     85 H42          9.1820     4.6710     0.3610 hc         1 O8T       0.041950
     86 H43          7.5730     3.1790     1.4960 hc         1 O8T       0.044700
     87 H44          7.8950     2.5860    -0.1260 hc         1 O8T       0.044700
@<TRIPOS>BOND
     1     1     2 ar  
     2     1    20 ar  
     3     1    44 1   
     4     2    23 ar  
     5     2    45 1   
     6     3     4 2   
     7     3     6 1   
     8     3    46 1   
     9     4    19 1   
    10     5     6 2   
    11     5    18 1   
    12     5    19 1   
    13     6     8 1   
    14     7     8 1   
    15     7     9 1   
    16     7    47 1   
    17     8    17 2   
    18     9    10 1   
    19     9    48 1   
    20     9    49 1   
    21    10    11 ar  
    22    10    24 ar  
    23    11    13 ar  
    24    11    50 1   
    25    12    25 1   
    26    12    27 1   
    27    12    51 1   
    28    13    14 ar  
    29    13    52 1   
    30    14    15 ar  
    31    14    25 1   
    32    15    24 ar  
    33    15    53 1   
    34    16    36 1   
    35    16    38 1   
    36    16    54 1   
    37    18    55 1   
    38    18    56 1   
    39    19    20 1   
    40    20    21 ar  
    41    21    22 ar  
    42    21    57 1   
    43    22    23 ar  
    44    22    58 1   
    45    23    59 1   
    46    24    60 1   
    47    25    26 2   
    48    27    28 1   
    49    27    36 1   
    50    27    61 1   
    51    28    29 1   
    52    28    62 1   
    53    28    63 1   
    54    29    30 1   
    55    29    64 1   
    56    29    65 1   
    57    30    31 1   
    58    30    35 1   
    59    30    66 1   
    60    31    32 1   
    61    31    67 1   
    62    31    68 1   
    63    32    33 1   
    64    32    69 1   
    65    32    70 1   
    66    33    34 1   
    67    33    71 1   
    68    33    72 1   
    69    34    35 1   
    70    34    73 1   
    71    34    74 1   
    72    35    75 1   
    73    35    76 1   
    74    36    37 2   
    75    38    39 1   
    76    38    43 1   
    77    38    77 1   
    78    39    40 1   
    79    39    78 1   
    80    39    79 1   
    81    40    41 1   
    82    40    80 1   
    83    40    81 1   
    84    41    42 1   
    85    41    82 1   
    86    41    83 1   
    87    42    43 1   
    88    42    84 1   
    89    42    85 1   
    90    43    86 1   
    91    43    87 1   
@<TRIPOS>SUBSTRUCTURE
     1 O8T         1 TEMP              0 ****  ****    0 ROOT
