@<TRIPOS>MOLECULE
O8T
   87    91     1     0     0
SMALL
No Charge or Current Charge


@<TRIPOS>ATOM
      1 C4          -7.1470    -3.7170     1.2150 ca         1 O8T      -0.105500
      2 C5          -7.7690    -4.9640     1.4090 ca         1 O8T      -0.102500
      3 C6          -6.3730     0.3900     0.2520 cc         1 O8T       0.301900
      4 N1          -7.2050    -0.4330     0.8660 nd         1 O8T      -0.513800
      5 C7          -6.1320    -1.4370    -0.9740 cd         1 O8T       0.331000
      6 C8          -5.6980    -0.1620    -0.8600 cc         1 O8T      -0.372600
      7 N2          -4.4710     1.8150    -1.3650 ns         1 O8T      -0.505900
      8 C9          -4.7160     0.5100    -1.7160 c          1 O8T       0.665700
      9 C10         -3.5250     2.6970    -2.0500 c3         1 O8T       0.155300
     10 C11         -2.1300     2.6060    -1.4480 ca         1 O8T      -0.072300
     11 C12         -1.8240     3.2900    -0.2590 ca         1 O8T      -0.108500
     12 N3           2.8420     1.7680    -0.4380 ns         1 O8T      -0.482900
     13 C13         -0.5370     3.2070     0.3000 ca         1 O8T      -0.069500
     14 C14          0.4760     2.4440    -0.3250 ca         1 O8T      -0.146600
     15 C15          0.1590     1.7550    -1.5210 ca         1 O8T      -0.069500
     16 N4           6.5570     1.9740    -0.7430 ns         1 O8T      -0.497900
     17 O2          -4.1560    -0.0250    -2.6630 o          1 O8T      -0.642100
     18 N5          -5.8030    -2.4160    -1.8750 nv         1 O8T      -1.069000
     19 N           -7.0490    -1.5660     0.0870 na         1 O8T       0.168000
     20 C3          -7.6690    -2.8020     0.2790 ca         1 O8T       0.006800
     21 C2          -8.8230    -3.1410    -0.4560 ca         1 O8T      -0.105500
     22 C1          -9.4450    -4.3880    -0.2620 ca         1 O8T      -0.102500
     23 C           -8.9170    -5.2990     0.6700 ca         1 O8T      -0.107000
     24 C16         -1.1320     1.8360    -2.0720 ca         1 O8T      -0.108500
     25 C17          1.8530     2.3770     0.3050 c          1 O8T       0.615700
     26 O1           2.0810     2.8330     1.4180 o          1 O8T      -0.603100
     27 C18          4.2360     1.5430     0.0100 c3         1 O8T       0.032700
     28 C26          4.4340     0.0860     0.5110 c3         1 O8T      -0.086400
     29 C27          3.5240    -0.3150     1.6990 c3         1 O8T      -0.071400
     30 C28          3.8260    -1.7090     2.3320 c6         1 O8T      -0.061700
     31 C33          2.9490    -1.9380     3.5960 c6         1 O8T      -0.071400
     32 C32          3.2380    -3.3090     4.2550 c6         1 O8T      -0.072900
     33 C31          3.0420    -4.4650     3.2460 c6         1 O8T      -0.074400
     34 C30          3.9150    -4.2550     1.9860 c6         1 O8T      -0.072900
     35 C29          3.6320    -2.8830     1.3250 c6         1 O8T      -0.071400
     36 C19          5.2370     1.8900    -1.1320 c          1 O8T       0.592100
     37 O            4.8930     2.0750    -2.2940 o          1 O8T      -0.602100
     38 C20          7.6890     2.2960    -1.6180 c6         1 O8T       0.108700
     39 C25          7.8270     3.8330    -1.7870 c6         1 O8T      -0.089400
     40 C24          9.0480     4.1990    -2.6690 c6         1 O8T      -0.071900
     41 C23         10.3530     3.5960    -2.0960 c6         1 O8T      -0.077400
     42 C22         10.2240     2.0650    -1.9060 c6         1 O8T      -0.071900
     43 C21          8.9980     1.7130    -1.0260 c6         1 O8T      -0.089400
     44 H1          -6.2600    -3.4610     1.7910 ha         1 O8T       0.135000
     45 H2          -7.3620    -5.6680     2.1320 ha         1 O8T       0.119500
     46 H3          -6.2750     1.3940     0.6460 h4         1 O8T       0.032100
     47 H4          -4.9740     2.1790    -0.5670 hn         1 O8T       0.316500
     48 H5          -3.4930     2.4450    -3.1180 h1         1 O8T       0.056700
     49 H6          -3.8890     3.7300    -1.9680 h1         1 O8T       0.056700
     50 H7          -2.5850     3.8890     0.2370 ha         1 O8T       0.115500
     51 H8           2.5930     1.4760    -1.3750 hn         1 O8T       0.323500
     52 H9          -0.3280     3.7460     1.2210 ha         1 O8T       0.123000
     53 H10          0.8960     1.1410    -2.0320 ha         1 O8T       0.123000
     54 H11          6.7490     1.8090     0.2380 hn         1 O8T       0.308500
     55 H12         -6.0880    -3.3800    -1.7140 hn         1 O8T       0.491000
     56 H13         -5.0370    -2.2440    -2.5260 hn         1 O8T       0.491000
     57 H14         -9.2350    -2.4390    -1.1790 ha         1 O8T       0.135000
     58 H15        -10.3340    -4.6480    -0.8330 ha         1 O8T       0.119500
     59 H16         -9.3980    -6.2630     0.8210 ha         1 O8T       0.118000
     60 H17         -1.3580     1.2940    -2.9880 ha         1 O8T       0.115500
     61 H18          4.4620     2.2300     0.8360 h1         1 O8T       0.073700
     62 H19          4.2590    -0.5950    -0.3310 hc         1 O8T       0.055200
     63 H20          5.4800    -0.0500     0.8130 hc         1 O8T       0.055200
     64 H21          3.6220     0.4560     2.4740 hc         1 O8T       0.042700
     65 H22          2.4770    -0.2860     1.3730 hc         1 O8T       0.042700
     66 H23          4.8800    -1.6880     2.6440 hc         1 O8T       0.044700
     67 H24          3.1290    -1.1380     4.3270 hc         1 O8T       0.038450
     68 H25          1.8850    -1.8780     3.3270 hc         1 O8T       0.038450
     69 H26          4.2660    -3.3250     4.6420 hc         1 O8T       0.038700
     70 H27          2.5760    -3.4540     5.1200 hc         1 O8T       0.038700
     71 H28          3.2960    -5.4230     3.7210 hc         1 O8T       0.038700
     72 H29          1.9830    -4.5300     2.9570 hc         1 O8T       0.038700
     73 H30          4.9780    -4.3210     2.2590 hc         1 O8T       0.038700
     74 H31          3.7280    -5.0620     1.2650 hc         1 O8T       0.038700
     75 H32          2.6080    -2.8690     0.9290 hc         1 O8T       0.038450
     76 H33          4.3020    -2.7640     0.4640 hc         1 O8T       0.038450
     77 H34          7.5130     1.8400    -2.6050 h1         1 O8T       0.083700
     78 H35          6.9140     4.2430    -2.2390 hc         1 O8T       0.044700
     79 H36          7.9290     4.3100    -0.8020 hc         1 O8T       0.044700
     80 H37          8.8880     3.8320    -3.6930 hc         1 O8T       0.041950
     81 H38          9.1420     5.2910    -2.7410 hc         1 O8T       0.041950
     82 H39         11.1940     3.8200    -2.7670 hc         1 O8T       0.039200
     83 H40         10.5880     4.0700    -1.1330 hc         1 O8T       0.039200
     84 H41         10.1300     1.5760    -2.8860 hc         1 O8T       0.041950
     85 H42         11.1400     1.6680    -1.4460 hc         1 O8T       0.041950
     86 H43          9.1550     2.0970    -0.0080 hc         1 O8T       0.044700
     87 H44          8.9120     0.6210    -0.9380 hc         1 O8T       0.044700
@<TRIPOS>BOND
     1     1     2 ar  
     2     1    20 ar  
     3     1    44 1   
     4     2    23 ar  
     5     2    45 1   
     6     3     4 2   
     7     3     6 1   
     8     3    46 1   
     9     4    19 1   
    10     5     6 2   
    11     5    18 1   
    12     5    19 1   
    13     6     8 1   
    14     7     8 1   
    15     7     9 1   
    16     7    47 1   
    17     8    17 2   
    18     9    10 1   
    19     9    48 1   
    20     9    49 1   
    21    10    11 ar  
    22    10    24 ar  
    23    11    13 ar  
    24    11    50 1   
    25    12    25 1   
    26    12    27 1   
    27    12    51 1   
    28    13    14 ar  
    29    13    52 1   
    30    14    15 ar  
    31    14    25 1   
    32    15    24 ar  
    33    15    53 1   
    34    16    36 1   
    35    16    38 1   
    36    16    54 1   
    37    18    55 1   
    38    18    56 1   
    39    19    20 1   
    40    20    21 ar  
    41    21    22 ar  
    42    21    57 1   
    43    22    23 ar  
    44    22    58 1   
    45    23    59 1   
    46    24    60 1   
    47    25    26 2   
    48    27    28 1   
    49    27    36 1   
    50    27    61 1   
    51    28    29 1   
    52    28    62 1   
    53    28    63 1   
    54    29    30 1   
    55    29    64 1   
    56    29    65 1   
    57    30    31 1   
    58    30    35 1   
    59    30    66 1   
    60    31    32 1   
    61    31    67 1   
    62    31    68 1   
    63    32    33 1   
    64    32    69 1   
    65    32    70 1   
    66    33    34 1   
    67    33    71 1   
    68    33    72 1   
    69    34    35 1   
    70    34    73 1   
    71    34    74 1   
    72    35    75 1   
    73    35    76 1   
    74    36    37 2   
    75    38    39 1   
    76    38    43 1   
    77    38    77 1   
    78    39    40 1   
    79    39    78 1   
    80    39    79 1   
    81    40    41 1   
    82    40    80 1   
    83    40    81 1   
    84    41    42 1   
    85    41    82 1   
    86    41    83 1   
    87    42    43 1   
    88    42    84 1   
    89    42    85 1   
    90    43    86 1   
    91    43    87 1   
@<TRIPOS>SUBSTRUCTURE
     1 O8T         1 TEMP              0 ****  ****    0 ROOT
