@<TRIPOS>MOLECULE
O8U
   18    18     1     0     0
SMALL
No Charge or Current Charge


@<TRIPOS>ATOM
      1 N            7.2800    -0.7270     8.9280 nv         1 O8U      -1.057000
      2 C4           8.5160    -0.1360     8.9650 ca         1 O8U       0.241000
      3 C3           9.6590    -0.8670     8.6030 ca         1 O8U      -0.136000
      4 C2          10.9310    -0.2650     8.6380 ca         1 O8U      -0.131500
      5 C5           8.6450     1.2030     9.3650 ca         1 O8U      -0.136000
      6 C6           9.9140     1.8110     9.4030 ca         1 O8U      -0.131500
      7 C1          11.0610     1.0840     9.0410 ca         1 O8U       0.098100
      8 O           12.2800     1.7300     9.0970 os         1 O8U      -0.343100
      9 C           13.5130     1.0760     8.7470 c3         1 O8U       0.149900
     10 H1           6.4400    -0.1740     9.0900 hn         1 O8U       0.435500
     11 H2           7.1670    -1.6640     8.5420 hn         1 O8U       0.435500
     12 H3           9.5660    -1.9050     8.2920 ha         1 O8U       0.111500
     13 H4          11.7970    -0.8560     8.3520 ha         1 O8U       0.119500
     14 H5           7.7660     1.7770     9.6480 ha         1 O8U       0.111500
     15 H6          10.0090     2.8490     9.7130 ha         1 O8U       0.119500
     16 H7          14.3560     1.7680     8.8620 h1         1 O8U       0.037033
     17 H8          13.6930     0.2100     9.3970 h1         1 O8U       0.037033
     18 H9          13.4920     0.7360     7.7040 h1         1 O8U       0.037033
@<TRIPOS>BOND
     1     1     2 1   
     2     1    10 1   
     3     1    11 1   
     4     2     3 ar  
     5     2     5 ar  
     6     3     4 ar  
     7     3    12 1   
     8     4     7 ar  
     9     4    13 1   
    10     5     6 ar  
    11     5    14 1   
    12     6     7 ar  
    13     6    15 1   
    14     7     8 1   
    15     8     9 1   
    16     9    16 1   
    17     9    17 1   
    18     9    18 1   
@<TRIPOS>SUBSTRUCTURE
     1 O8U         1 TEMP              0 ****  ****    0 ROOT
