@<TRIPOS>MOLECULE
O8U
   18    18     1     0     0
SMALL
bcc


@<TRIPOS>ATOM
      1 N            7.2940    -0.7730     9.0540 nv         1 O8U      -0.808200
      2 C4           8.5380    -0.1530     9.0080 ca         1 O8U       0.102600
      3 C3           9.6860    -0.8520     8.6400 ca         1 O8U      -0.154000
      4 C2          10.9400    -0.2510     8.6520 ca         1 O8U      -0.149500
      5 C5           8.6910     1.1850     9.3890 ca         1 O8U      -0.154000
      6 C6           9.9350     1.7880     9.4010 ca         1 O8U      -0.149500
      7 C1          11.0780     1.0790     9.0340 ca         1 O8U       0.098100
      8 O           12.2530     1.7540     9.0780 os         1 O8U      -0.319900
      9 C           13.4300     1.0590     8.7370 c3         1 O8U       0.126700
     10 H1           6.5130    -0.1450     8.9430 hn         1 O8U       0.380300
     11 H2           7.1990    -1.5630     8.4350 hn         1 O8U       0.380300
     12 H3           9.6080    -1.8900     8.3370 ha         1 O8U       0.129500
     13 H4          11.7940    -0.8440     8.3530 ha         1 O8U       0.137500
     14 H5           7.8210     1.7620     9.6800 ha         1 O8U       0.129500
     15 H6          10.0250     2.8260     9.6990 ha         1 O8U       0.137500
     16 H7          14.2520     1.7640     8.8440 h1         1 O8U       0.037033
     17 H8          13.6150     0.2070     9.3990 h1         1 O8U       0.037033
     18 H9          13.4130     0.6980     7.7040 h1         1 O8U       0.037033
@<TRIPOS>BOND
     1     1     2 1   
     2     1    10 1   
     3     1    11 1   
     4     2     3 ar  
     5     2     5 ar  
     6     3     4 ar  
     7     3    12 1   
     8     4     7 ar  
     9     4    13 1   
    10     5     6 ar  
    11     5    14 1   
    12     6     7 ar  
    13     6    15 1   
    14     7     8 1   
    15     8     9 1   
    16     9    16 1   
    17     9    17 1   
    18     9    18 1   
@<TRIPOS>SUBSTRUCTURE
     1 O8U         1 TEMP              0 ****  ****    0 ROOT
