@<TRIPOS>MOLECULE
O8V
   95    99     1     0     0
SMALL
No Charge or Current Charge


@<TRIPOS>ATOM
      1 C10        255.5020   262.3690   250.2700 c3         1 O8V       0.224500
      2 C13        257.7520   259.7250   251.1080 c3         1 O8V      -0.212700
      3 C17        258.9880   257.5550   248.5810 cc         1 O8V       0.175900
      4 C21        252.5790   256.7240   243.8160 ce         1 O8V      -0.307200
      5 C22        253.1250   255.5670   243.3680 c2         1 O8V      -0.135200
      6 C24        253.4490   256.3550   240.9540 c3         1 O8V      -0.087100
      7 C26        256.2610   254.8470   241.0020 c3         1 O8V      -0.087700
      8 C28        255.7540   253.5330   240.3300 c3         1 O8V       0.182600
      9 C02        251.9740   256.8760   245.1650 c          1 O8V       0.599300
     10 C04        251.4900   258.5800   246.9390 c3         1 O8V       0.141200
     11 C05        252.1970   259.8570   247.3280 c2         1 O8V      -0.254200
     12 C06        253.1980   259.9540   248.2330 ce         1 O8V      -0.145000
     13 C07        253.8900   261.1980   248.6260 ce         1 O8V      -0.081200
     14 C08        253.6620   262.4330   247.7600 c3         1 O8V      -0.057900
     15 C09        254.7200   261.1970   249.7000 c2         1 O8V      -0.195200
     16 C11        256.4630   261.9790   251.4090 c3         1 O8V      -0.228400
     17 C12        257.6930   261.2300   250.8910 c          1 O8V       0.593100
     18 C14        258.0270   258.9790   249.8510 cc         1 O8V       0.447300
     19 C16        258.0430   258.2260   247.8470 cd         1 O8V       0.181500
     20 C23        253.8610   255.3370   242.0520 c3         1 O8V      -0.054500
     21 C25        255.4130   255.2310   242.2620 c3         1 O8V       0.184300
     22 C27        257.7770   254.7900   241.3510 c3         1 O8V      -0.094100
     23 C30        257.5690   252.3430   239.2380 c          1 O8V       0.653100
     24 C32        259.2820   251.5350   237.5680 ca         1 O8V       0.495900
     25 C33        259.9880   251.9220   236.4190 ca         1 O8V      -0.213000
     26 C34        261.0430   251.1170   235.9650 ca         1 O8V       0.021000
     27 C35        261.3390   249.9420   236.6790 ca         1 O8V      -0.127000
     28 C36        262.3900   249.1060   236.2540 ca         1 O8V      -0.069000
     29 C37        263.1410   249.4520   235.1160 ca         1 O8V      -0.122000
     30 C38        262.8420   250.6270   234.4020 ca         1 O8V      -0.082000
     31 C39        261.7920   251.4610   234.8260 ca         1 O8V      -0.115000
     32 C40        260.5620   249.6250   237.8120 ca         1 O8V       0.399900
     33 C44        255.9890   256.7930   244.0500 c          1 O8V       0.595100
     34 C45        256.5140   258.2500   244.2450 c5         1 O8V       0.051700
     35 C46        255.3520   259.2430   243.9550 c5         1 O8V      -0.083400
     36 C47        255.8050   260.5010   244.7310 c5         1 O8V      -0.103400
     37 C48        256.2710   259.8930   246.0770 c5         1 O8V       0.117000
     38 C50        257.8500   257.8830   246.3870 c          1 O8V       0.556600
     39 N03        251.9400   258.1720   245.6150 ns         1 O8V      -0.509900
     40 N15        257.4110   259.1390   248.6960 nd         1 O8V      -0.671000
     41 N31        258.1970   252.2980   238.0200 ns         1 O8V      -0.319900
     42 N41        259.5440   250.4010   238.2500 nb         1 O8V      -0.669000
     43 N49        256.9080   258.6330   245.6330 n          1 O8V      -0.386800
     44 O01        251.6170   255.9300   245.8510 o          1 O8V      -0.591100
     45 O18        258.9930   258.0240   249.8570 os         1 O8V      -0.254000
     46 O19        258.6370   261.8390   250.4050 o          1 O8V      -0.526100
     47 O20        254.5710   263.3110   250.8010 oh         1 O8V      -0.657000
     48 O29        256.5400   253.2420   239.1540 os         1 O8V      -0.475100
     49 O42        257.8690   251.7060   240.2380 o          1 O8V      -0.476000
     50 O43        255.8980   256.5190   242.7050 os         1 O8V      -0.458100
     51 O51        258.4870   256.9860   245.8430 o          1 O8V      -0.603100
     52 O52        255.7110   255.9940   244.9360 o          1 O8V      -0.450000
     53 H101       256.0880   262.8360   249.4660 h1         1 O8V       0.045700
     54 H132       256.8230   259.3610   251.5570 hc         1 O8V       0.094200
     55 H131       258.5620   259.5290   251.8180 hc         1 O8V       0.094200
     56 H171       259.6880   256.7720   248.3240 h4         1 O8V       0.084100
     57 H211       252.6600   257.6370   243.2320 ha         1 O8V       0.174000
     58 H221       253.0800   254.6730   243.9970 ha         1 O8V       0.208000
     59 H242       252.3570   256.4130   240.8750 hc         1 O8V       0.040700
     60 H243       253.8320   257.3580   241.1760 hc         1 O8V       0.040700
     61 H241       253.8330   256.0550   239.9720 hc         1 O8V       0.040700
     62 H261       256.1400   255.6490   240.2650 hc         1 O8V       0.069700
     63 H281       254.7120   253.6760   240.0180 h1         1 O8V       0.065700
     64 H282       255.7610   252.7030   241.0500 h1         1 O8V       0.065700
     65 H042       250.4030   258.7380   246.9160 h1         1 O8V       0.059700
     66 H041       251.7090   257.7870   247.6670 h1         1 O8V       0.059700
     67 H051       251.8100   260.7360   246.8130 ha         1 O8V       0.163000
     68 H061       253.5350   259.0460   248.7400 ha         1 O8V       0.183000
     69 H081       254.4460   263.1870   247.8870 hc         1 O8V       0.040367
     70 H083       253.6490   262.1810   246.6940 hc         1 O8V       0.040367
     71 H082       252.7050   262.9100   248.0030 hc         1 O8V       0.040367
     72 H092       254.8450   260.2750   250.2650 ha         1 O8V       0.191000
     73 H112       255.9120   261.3650   252.1290 hc         1 O8V       0.096200
     74 H111       256.8180   262.8940   251.8970 hc         1 O8V       0.096200
     75 H231       253.5160   254.3580   241.7000 hc         1 O8V       0.066700
     76 H251       255.6050   254.4560   243.0170 h1         1 O8V       0.078700
     77 H272       258.1190   255.7240   241.8130 hc         1 O8V       0.048033
     78 H271       257.9880   253.9710   242.0490 hc         1 O8V       0.048033
     79 H273       258.3870   254.6460   240.4530 hc         1 O8V       0.048033
     80 H331       259.7190   252.8360   235.8970 ha         1 O8V       0.123000
     81 H361       262.6260   248.1950   236.8000 ha         1 O8V       0.118000
     82 H371       263.9530   248.8090   234.7860 ha         1 O8V       0.117000
     83 H381       263.4250   250.8910   233.5220 ha         1 O8V       0.114000
     84 H391       261.5650   252.3690   234.2720 ha         1 O8V       0.117000
     85 H401       260.7580   248.7200   238.3850 h4         1 O8V       0.026100
     86 H451       257.3510   258.4050   243.5520 h1         1 O8V       0.089700
     87 H462       255.2100   259.4260   242.8840 hc         1 O8V       0.063700
     88 H461       254.4030   258.8730   244.3560 hc         1 O8V       0.063700
     89 H472       256.6330   261.0040   244.2180 hc         1 O8V       0.055700
     90 H471       255.0020   261.2350   244.8570 hc         1 O8V       0.055700
     91 H482       256.9690   260.5670   246.5900 h1         1 O8V       0.065200
     92 H481       255.4250   259.6830   246.7430 h1         1 O8V       0.065200
     93 H031       252.2800   258.8860   244.9850 hn         1 O8V       0.308500
     94 H311       257.8210   252.9330   237.3310 hn         1 O8V       0.167000
     95 H201       255.0730   264.1310   250.9990 ho         1 O8V       0.455000
@<TRIPOS>BOND
     1     1    15 1   
     2     1    16 1   
     3     1    47 1   
     4     1    53 1   
     5     2    17 1   
     6     2    18 1   
     7     2    54 1   
     8     2    55 1   
     9     3    19 2   
    10     3    45 1   
    11     3    56 1   
    12     4     5 2   
    13     4     9 1   
    14     4    57 1   
    15     5    20 1   
    16     5    58 1   
    17     6    20 1   
    18     6    59 1   
    19     6    60 1   
    20     6    61 1   
    21     7     8 1   
    22     7    21 1   
    23     7    22 1   
    24     7    62 1   
    25     8    48 1   
    26     8    63 1   
    27     8    64 1   
    28     9    39 1   
    29     9    44 2   
    30    10    11 1   
    31    10    39 1   
    32    10    65 1   
    33    10    66 1   
    34    11    12 2   
    35    11    67 1   
    36    12    13 1   
    37    12    68 1   
    38    13    14 1   
    39    13    15 2   
    40    14    69 1   
    41    14    70 1   
    42    14    71 1   
    43    15    72 1   
    44    16    17 1   
    45    16    73 1   
    46    16    74 1   
    47    17    46 2   
    48    18    40 2   
    49    18    45 1   
    50    19    38 1   
    51    19    40 1   
    52    20    21 1   
    53    20    75 1   
    54    21    50 1   
    55    21    76 1   
    56    22    77 1   
    57    22    78 1   
    58    22    79 1   
    59    23    41 1   
    60    23    48 1   
    61    23    49 2   
    62    24    25 ar  
    63    24    41 1   
    64    24    42 ar  
    65    25    26 ar  
    66    25    80 1   
    67    26    27 ar  
    68    26    31 ar  
    69    27    28 ar  
    70    27    32 ar  
    71    28    29 ar  
    72    28    81 1   
    73    29    30 ar  
    74    29    82 1   
    75    30    31 ar  
    76    30    83 1   
    77    31    84 1   
    78    32    42 ar  
    79    32    85 1   
    80    33    34 1   
    81    33    50 1   
    82    33    52 2   
    83    34    35 1   
    84    34    43 1   
    85    34    86 1   
    86    35    36 1   
    87    35    87 1   
    88    35    88 1   
    89    36    37 1   
    90    36    89 1   
    91    36    90 1   
    92    37    43 1   
    93    37    91 1   
    94    37    92 1   
    95    38    43 1   
    96    38    51 2   
    97    39    93 1   
    98    41    94 1   
    99    47    95 1   
@<TRIPOS>SUBSTRUCTURE
     1 O8V         1 TEMP              0 ****  ****    0 ROOT
