@<TRIPOS>MOLECULE
O8V
   95    99     1     0     0
SMALL
abcg2


@<TRIPOS>ATOM
      1 C10        254.9390   260.8960   250.7070 c3         1 O8V       0.224500
      2 C13        258.7760   259.9890   250.4110 c3         1 O8V      -0.212700
      3 C17        260.2000   259.0580   247.2990 cc         1 O8V       0.175900
      4 C21        252.6210   257.0260   243.7500 ce         1 O8V      -0.307200
      5 C22        253.4210   255.9810   243.5570 c2         1 O8V      -0.135200
      6 C24        253.5890   256.4030   241.0620 c3         1 O8V      -0.087100
      7 C26        256.4100   255.1410   241.2270 c3         1 O8V      -0.087700
      8 C28        255.9390   253.7700   240.7520 c3         1 O8V       0.182600
      9 C02        252.0920   257.3610   245.0960 c          1 O8V       0.599300
     10 C04        250.7660   259.0220   246.3360 c3         1 O8V       0.141200
     11 C05        251.7460   259.9590   246.9760 c2         1 O8V      -0.254200
     12 C06        252.2470   259.7910   248.2020 ce         1 O8V      -0.145000
     13 C07        253.2410   260.6570   248.8380 ce         1 O8V      -0.081200
     14 C08        253.6340   261.9090   248.1120 c3         1 O8V      -0.057900
     15 C09        253.7800   260.2620   250.0000 c2         1 O8V      -0.195200
     16 C11        256.2070   260.1960   250.2150 c3         1 O8V      -0.228400
     17 C12        257.5020   260.7660   250.7180 c          1 O8V       0.593100
     18 C14        258.9980   259.6370   248.9820 cc         1 O8V       0.447300
     19 C16        258.9000   259.1100   246.9310 cd         1 O8V       0.181500
     20 C23        254.0550   255.5830   242.2580 c3         1 O8V      -0.054500
     21 C25        255.5850   255.5830   242.4420 c3         1 O8V       0.184300
     22 C27        257.8980   255.1270   241.5760 c3         1 O8V      -0.094100
     23 C30        257.5710   252.4200   239.6460 c          1 O8V       0.653100
     24 C32        259.1550   251.4190   238.0210 ca         1 O8V       0.495900
     25 C33        259.8770   251.7160   236.8870 ca         1 O8V      -0.213000
     26 C34        260.8670   250.8200   236.4510 ca         1 O8V       0.021000
     27 C35        261.0890   249.6510   237.2170 ca         1 O8V      -0.127000
     28 C36        262.0790   248.7230   236.8250 ca         1 O8V      -0.069000
     29 C37        262.8260   248.9560   235.7030 ca         1 O8V      -0.122000
     30 C38        262.6070   250.1230   234.9360 ca         1 O8V      -0.082000
     31 C39        261.6540   251.0360   235.2940 ca         1 O8V      -0.115000
     32 C40        260.2810   249.4700   238.3580 ca         1 O8V       0.399900
     33 C44        256.2650   257.3040   243.9770 c          1 O8V       0.595100
     34 C45        256.5770   258.7860   243.9920 c5         1 O8V       0.051700
     35 C46        255.2880   259.6180   243.8650 c5         1 O8V      -0.083400
     36 C47        255.5920   260.8470   244.7060 c5         1 O8V      -0.103400
     37 C48        256.3600   260.2690   245.8850 c5         1 O8V       0.117000
     38 C50        258.3630   258.7510   245.6030 c          1 O8V       0.556600
     39 N03        251.2890   258.4430   245.1150 ns         1 O8V      -0.509900
     40 N15        258.1520   259.4790   248.0290 nd         1 O8V      -0.671000
     41 N31        258.1470   252.2960   238.4150 ns         1 O8V      -0.319900
     42 N41        259.3520   250.3020   238.7430 nb         1 O8V      -0.669000
     43 N49        257.1440   259.2030   245.2590 n          1 O8V      -0.386800
     44 O01        252.3580   256.7140   246.1010 o          1 O8V      -0.591100
     45 O18        260.2660   259.4030   248.6000 os         1 O8V      -0.254000
     46 O19        257.5590   261.7730   251.3830 o          1 O8V      -0.526100
     47 O20        254.7400   260.7370   252.0950 oh         1 O8V      -0.657000
     48 O29        256.6450   253.3840   239.5740 os         1 O8V      -0.475100
     49 O42        257.8330   251.7850   240.6350 o          1 O8V      -0.476000
     50 O43        255.9970   256.9260   242.7340 os         1 O8V      -0.458100
     51 O51        259.0310   258.0450   244.8570 o          1 O8V      -0.603100
     52 O52        256.2230   256.5950   244.9450 o          1 O8V      -0.450000
     53 H101       255.0080   261.9590   250.4490 h1         1 O8V       0.045700
     54 H132       258.7300   259.0600   250.9950 hc         1 O8V       0.094200
     55 H131       259.6310   260.5530   250.7850 hc         1 O8V       0.094200
     56 H171       261.1200   258.8230   246.7910 h4         1 O8V       0.084100
     57 H211       252.3530   257.6820   242.9290 ha         1 O8V       0.174000
     58 H221       253.6670   255.3510   244.4070 ha         1 O8V       0.208000
     59 H242       252.5040   256.3580   240.9670 hc         1 O8V       0.040700
     60 H243       253.8730   257.4520   241.1500 hc         1 O8V       0.040700
     61 H241       254.0060   256.0230   240.1300 hc         1 O8V       0.040700
     62 H261       256.2460   255.8590   240.4170 hc         1 O8V       0.069700
     63 H281       254.8890   253.7890   240.4600 h1         1 O8V       0.065700
     64 H282       256.0580   253.0240   241.5400 h1         1 O8V       0.065700
     65 H042       249.8520   259.5580   246.0710 h1         1 O8V       0.059700
     66 H041       250.4820   258.2260   247.0240 h1         1 O8V       0.059700
     67 H051       252.0550   260.8010   246.3640 ha         1 O8V       0.163000
     68 H061       251.9290   258.9260   248.7790 ha         1 O8V       0.183000
     69 H081       254.2980   262.5470   248.6890 hc         1 O8V       0.040367
     70 H083       254.1430   261.6720   247.1770 hc         1 O8V       0.040367
     71 H082       252.7530   262.4970   247.8480 hc         1 O8V       0.040367
     72 H092       253.4350   259.3290   250.4400 ha         1 O8V       0.191000
     73 H112       256.2450   260.2330   249.1240 hc         1 O8V       0.096200
     74 H111       256.1750   259.1270   250.4550 hc         1 O8V       0.096200
     75 H231       253.7690   254.5360   242.1010 hc         1 O8V       0.066700
     76 H251       255.8330   254.9300   243.2860 h1         1 O8V       0.078700
     77 H272       258.2330   256.0980   241.9370 hc         1 O8V       0.048033
     78 H271       258.1130   254.3870   242.3500 hc         1 O8V       0.048033
     79 H273       258.5090   254.8930   240.7040 hc         1 O8V       0.048033
     80 H331       259.6920   252.6290   236.3330 ha         1 O8V       0.123000
     81 H361       262.2350   247.8330   237.4220 ha         1 O8V       0.118000
     82 H371       263.5860   248.2500   235.3970 ha         1 O8V       0.117000
     83 H381       263.2070   250.2930   234.0510 ha         1 O8V       0.114000
     84 H391       261.4940   251.9270   234.7010 ha         1 O8V       0.117000
     85 H401       260.4180   248.5790   238.9660 h4         1 O8V       0.026100
     86 H451       257.2580   259.0150   243.1670 h1         1 O8V       0.089700
     87 H462       255.0550   259.8400   242.8260 hc         1 O8V       0.063700
     88 H461       254.4380   259.0810   244.2910 hc         1 O8V       0.063700
     89 H472       256.2240   261.5460   244.1540 hc         1 O8V       0.055700
     90 H471       254.6920   261.3780   245.0140 hc         1 O8V       0.055700
     91 H482       257.0000   261.0030   246.3680 h1         1 O8V       0.065200
     92 H481       255.6820   259.8610   246.6390 h1         1 O8V       0.065200
     93 H031       251.1410   258.9510   244.2580 hn         1 O8V       0.308500
     94 H311       257.8840   252.9900   237.7310 hn         1 O8V       0.167000
     95 H201       255.4220   261.2370   252.5540 ho         1 O8V       0.455000
@<TRIPOS>BOND
     1     1    15 1   
     2     1    16 1   
     3     1    47 1   
     4     1    53 1   
     5     2    17 1   
     6     2    18 1   
     7     2    54 1   
     8     2    55 1   
     9     3    19 2   
    10     3    45 1   
    11     3    56 1   
    12     4     5 2   
    13     4     9 1   
    14     4    57 1   
    15     5    20 1   
    16     5    58 1   
    17     6    20 1   
    18     6    59 1   
    19     6    60 1   
    20     6    61 1   
    21     7     8 1   
    22     7    21 1   
    23     7    22 1   
    24     7    62 1   
    25     8    48 1   
    26     8    63 1   
    27     8    64 1   
    28     9    39 1   
    29     9    44 2   
    30    10    11 1   
    31    10    39 1   
    32    10    65 1   
    33    10    66 1   
    34    11    12 2   
    35    11    67 1   
    36    12    13 1   
    37    12    68 1   
    38    13    14 1   
    39    13    15 2   
    40    14    69 1   
    41    14    70 1   
    42    14    71 1   
    43    15    72 1   
    44    16    17 1   
    45    16    73 1   
    46    16    74 1   
    47    17    46 2   
    48    18    40 2   
    49    18    45 1   
    50    19    38 1   
    51    19    40 1   
    52    20    21 1   
    53    20    75 1   
    54    21    50 1   
    55    21    76 1   
    56    22    77 1   
    57    22    78 1   
    58    22    79 1   
    59    23    41 1   
    60    23    48 1   
    61    23    49 2   
    62    24    25 ar  
    63    24    41 1   
    64    24    42 ar  
    65    25    26 ar  
    66    25    80 1   
    67    26    27 ar  
    68    26    31 ar  
    69    27    28 ar  
    70    27    32 ar  
    71    28    29 ar  
    72    28    81 1   
    73    29    30 ar  
    74    29    82 1   
    75    30    31 ar  
    76    30    83 1   
    77    31    84 1   
    78    32    42 ar  
    79    32    85 1   
    80    33    34 1   
    81    33    50 1   
    82    33    52 2   
    83    34    35 1   
    84    34    43 1   
    85    34    86 1   
    86    35    36 1   
    87    35    87 1   
    88    35    88 1   
    89    36    37 1   
    90    36    89 1   
    91    36    90 1   
    92    37    43 1   
    93    37    91 1   
    94    37    92 1   
    95    38    43 1   
    96    38    51 2   
    97    39    93 1   
    98    41    94 1   
    99    47    95 1   
@<TRIPOS>SUBSTRUCTURE
     1 O8V         1 TEMP              0 ****  ****    0 ROOT
