@<TRIPOS>MOLECULE
O8W
   83    86     1     0     0
SMALL
abcg2


@<TRIPOS>ATOM
      1 C4          -9.8710     0.1640    -0.7110 ca         1 O8W      -0.106500
      2 C5         -11.0270    -0.3600    -1.2730 ca         1 O8W      -0.101500
      3 C6          -6.2180    -0.0160     1.8680 cc         1 O8W       0.302900
      4 N1          -7.3320    -0.6450     1.6220 nd         1 O8W      -0.512800
      5 C7          -6.8840     0.7180    -0.1130 cd         1 O8W       0.334000
      6 C8          -5.8580     0.8670     0.8230 cc         1 O8W      -0.376600
      7 N2          -3.8190     1.7600     1.6770 ns         1 O8W      -0.501900
      8 C9          -4.6940     1.7230     0.6490 c          1 O8W       0.666700
      9 C10         -2.5940     2.5100     1.6410 c3         1 O8W       0.147300
     10 C11         -1.4010     1.7570     1.0970 ca         1 O8W      -0.078300
     11 C12         -1.4980     0.4770     0.5670 ca         1 O8W      -0.115000
     12 N3           3.2540     0.0300     0.1230 ns         1 O8W      -0.480900
     13 C13         -0.3740    -0.1760     0.0830 ca         1 O8W      -0.067000
     14 C14          0.8770     0.4290     0.1370 ca         1 O8W      -0.148600
     15 C15          0.9750     1.7190     0.6580 ca         1 O8W      -0.067000
     16 N4           5.1300    -2.9910    -0.4270 ns         1 O8W      -0.497900
     17 O2          -4.5180     2.3770    -0.3790 o          1 O8W      -0.644100
     18 N5          -7.0730     1.3380    -1.2990 nv         1 O8W      -1.070000
     19 N           -7.7440    -0.1830     0.4130 na         1 O8W       0.168000
     20 C3          -8.9260    -0.6960    -0.1630 ca         1 O8W       0.007800
     21 C2          -9.1420    -2.0700    -0.1570 ca         1 O8W      -0.106500
     22 C1         -10.3080    -2.5800    -0.7050 ca         1 O8W      -0.101500
     23 C          -11.2500    -1.7300    -1.2700 ca         1 O8W      -0.107000
     24 C16         -0.1510     2.3720     1.1260 ca         1 O8W      -0.115000
     25 C17          2.0560    -0.3220    -0.3820 c          1 O8W       0.616700
     26 O1           1.9400    -1.2000    -1.2250 o          1 O8W      -0.599100
     27 C18          4.4500    -0.6800    -0.2430 c3         1 O8W       0.031700
     28 C19          4.4020    -2.1190     0.2840 c          1 O8W       0.590100
     29 O            3.7850    -2.4000     1.3000 o          1 O8W      -0.603100
     30 C20          5.3840    -4.3690    -0.0450 c3         1 O8W       0.108700
     31 C23          5.1390    -5.2900    -1.2330 c3         1 O8W      -0.105100
     32 C21          6.7980    -4.5390     0.5140 c3         1 O8W      -0.093400
     33 C22          7.0920    -3.6670     1.7250 c3         1 O8W      -0.087100
     34 C24          5.6860     0.0220     0.3250 c3         1 O8W      -0.087400
     35 C25          5.8330     1.4680    -0.1350 c3         1 O8W      -0.070400
     36 C26          7.1120     2.1430     0.3610 c6         1 O8W      -0.061700
     37 C30          7.0720     3.6450     0.0720 c6         1 O8W      -0.071400
     38 C31          8.3330     4.3560     0.5510 c6         1 O8W      -0.072900
     39 C29          9.5870     3.7330    -0.0520 c6         1 O8W      -0.074400
     40 C28          9.6410     2.2360     0.2320 c6         1 O8W      -0.072900
     41 C27          8.3760     1.5310    -0.2470 c6         1 O8W      -0.071400
     42 H1          -9.7180     1.2350    -0.6890 ha         1 O8W       0.135500
     43 H2         -11.7610     0.3100    -1.7000 ha         1 O8W       0.120000
     44 H3          -5.6940    -0.2080     2.7930 h4         1 O8W       0.033100
     45 H4          -3.9860     1.1900     2.4890 hn         1 O8W       0.315500
     46 H5          -2.7450     3.4170     1.0550 h1         1 O8W       0.065200
     47 H6          -2.3700     2.8380     2.6580 h1         1 O8W       0.065200
     48 H7          -2.4540    -0.0300     0.5310 ha         1 O8W       0.116500
     49 H8           3.2800     0.5810     0.9660 hn         1 O8W       0.321500
     50 H9          -0.4750    -1.1720    -0.3290 ha         1 O8W       0.123500
     51 H10          1.9240     2.2400     0.6850 ha         1 O8W       0.123500
     52 H11          5.5890    -2.6560    -1.2610 hn         1 O8W       0.308500
     53 H12         -7.6190     0.8650    -2.0030 hn         1 O8W       0.492500
     54 H13         -6.2570     1.8130    -1.6520 hn         1 O8W       0.492500
     55 H14         -8.4020    -2.7310     0.2750 ha         1 O8W       0.135500
     56 H15        -10.4770    -3.6490    -0.6970 ha         1 O8W       0.120000
     57 H16        -12.1550    -2.1340    -1.7020 ha         1 O8W       0.118000
     58 H17         -0.0530     3.3760     1.5220 ha         1 O8W       0.116500
     59 H18          4.5320    -0.6930    -1.3340 h1         1 O8W       0.076700
     60 H19          4.6680    -4.6100     0.7430 h1         1 O8W       0.083700
     61 H20          5.8180    -5.0580    -2.0570 hc         1 O8W       0.042367
     62 H21          5.3060    -6.3290    -0.9490 hc         1 O8W       0.042367
     63 H22          4.1160    -5.1990    -1.6000 hc         1 O8W       0.042367
     64 H23          6.9260    -5.5910     0.7800 hc         1 O8W       0.040200
     65 H24          7.5250    -4.3360    -0.2790 hc         1 O8W       0.040200
     66 H25          7.0600    -2.6060     1.4740 hc         1 O8W       0.035367
     67 H26          6.3700    -3.8410     2.5240 hc         1 O8W       0.035367
     68 H27          8.0850    -3.8770     2.1220 hc         1 O8W       0.035367
     69 H28          5.6570    -0.0200     1.4190 hc         1 O8W       0.053700
     70 H29          6.5600    -0.5540     0.0180 hc         1 O8W       0.053700
     71 H30          5.8020     1.5100    -1.2300 hc         1 O8W       0.043200
     72 H31          4.9760     2.0510     0.2160 hc         1 O8W       0.043200
     73 H32          7.1630     2.0140     1.4510 hc         1 O8W       0.046700
     74 H33          6.9540     3.7950    -1.0080 hc         1 O8W       0.037950
     75 H34          6.1890     4.0870     0.5430 hc         1 O8W       0.037950
     76 H35          8.2800     5.4210     0.3080 hc         1 O8W       0.038700
     77 H36          8.3880     4.2900     1.6430 hc         1 O8W       0.038700
     78 H37          9.5910     3.8960    -1.1350 hc         1 O8W       0.038700
     79 H38         10.4810     4.2260     0.3390 hc         1 O8W       0.038700
     80 H39         10.5180     1.7910    -0.2440 hc         1 O8W       0.038700
     81 H40          9.7600     2.0760     1.3090 hc         1 O8W       0.038700
     82 H41          8.4440     0.4650    -0.0170 hc         1 O8W       0.037950
     83 H42          8.3120     1.6070    -1.3400 hc         1 O8W       0.037950
@<TRIPOS>BOND
     1     1     2 ar  
     2     1    20 ar  
     3     1    42 1   
     4     2    23 ar  
     5     2    43 1   
     6     3     4 2   
     7     3     6 1   
     8     3    44 1   
     9     4    19 1   
    10     5     6 2   
    11     5    18 1   
    12     5    19 1   
    13     6     8 1   
    14     7     8 1   
    15     7     9 1   
    16     7    45 1   
    17     8    17 2   
    18     9    10 1   
    19     9    46 1   
    20     9    47 1   
    21    10    11 ar  
    22    10    24 ar  
    23    11    13 ar  
    24    11    48 1   
    25    12    25 1   
    26    12    27 1   
    27    12    49 1   
    28    13    14 ar  
    29    13    50 1   
    30    14    15 ar  
    31    14    25 1   
    32    15    24 ar  
    33    15    51 1   
    34    16    28 1   
    35    16    30 1   
    36    16    52 1   
    37    18    53 1   
    38    18    54 1   
    39    19    20 1   
    40    20    21 ar  
    41    21    22 ar  
    42    21    55 1   
    43    22    23 ar  
    44    22    56 1   
    45    23    57 1   
    46    24    58 1   
    47    25    26 2   
    48    27    28 1   
    49    27    34 1   
    50    27    59 1   
    51    28    29 2   
    52    30    31 1   
    53    30    32 1   
    54    30    60 1   
    55    31    61 1   
    56    31    62 1   
    57    31    63 1   
    58    32    33 1   
    59    32    64 1   
    60    32    65 1   
    61    33    66 1   
    62    33    67 1   
    63    33    68 1   
    64    34    35 1   
    65    34    69 1   
    66    34    70 1   
    67    35    36 1   
    68    35    71 1   
    69    35    72 1   
    70    36    37 1   
    71    36    41 1   
    72    36    73 1   
    73    37    38 1   
    74    37    74 1   
    75    37    75 1   
    76    38    39 1   
    77    38    76 1   
    78    38    77 1   
    79    39    40 1   
    80    39    78 1   
    81    39    79 1   
    82    40    41 1   
    83    40    80 1   
    84    40    81 1   
    85    41    82 1   
    86    41    83 1   
@<TRIPOS>SUBSTRUCTURE
     1 O8W         1 TEMP              0 ****  ****    0 ROOT
