@<TRIPOS>MOLECULE
O8W
   83    86     1     0     0
SMALL
No Charge or Current Charge


@<TRIPOS>ATOM
      1 C4          -9.8830    -0.2510     0.0130 ca         1 O8W      -0.106500
      2 C5         -11.0230    -0.7090    -0.6720 ca         1 O8W      -0.101500
      3 C6          -5.8880    -0.1230     1.7230 cc         1 O8W       0.302900
      4 N1          -6.9100    -0.9400     1.5410 nd         1 O8W      -0.512800
      5 C7          -6.8270     0.7760    -0.0680 cd         1 O8W       0.334000
      6 C8          -5.7870     0.9270     0.7830 cc         1 O8W      -0.376600
      7 N2          -3.8260     1.8750     1.7390 ns         1 O8W      -0.501900
      8 C9          -4.7570     1.9670     0.7330 c          1 O8W       0.666700
      9 C10         -2.6740     2.7660     1.8940 c3         1 O8W       0.147300
     10 C11         -1.4110     2.1440     1.3150 ca         1 O8W      -0.078300
     11 C12         -1.1000     2.3070    -0.0460 ca         1 O8W      -0.115000
     12 N3           2.9960    -0.3660     0.4550 ns         1 O8W      -0.480900
     13 C13          0.0640     1.7310    -0.5840 ca         1 O8W      -0.067000
     14 C14          0.9410     0.9760     0.2280 ca         1 O8W      -0.148600
     15 C15          0.6190     0.8160     1.5990 ca         1 O8W      -0.067000
     16 N4           5.3450    -3.2510     0.2370 ns         1 O8W      -0.497900
     17 O2          -4.7130     2.8440    -0.1170 o          1 O8W      -0.644100
     18 N5          -7.2020     1.5160    -1.1590 nv         1 O8W      -1.070000
     19 N           -7.4880    -0.3650     0.4240 na         1 O8W       0.168000
     20 C3          -8.6210    -0.8170    -0.2550 ca         1 O8W       0.007800
     21 C2          -8.5090    -1.8490    -1.2080 ca         1 O8W      -0.106500
     22 C1          -9.6490    -2.3070    -1.8920 ca         1 O8W      -0.101500
     23 C          -10.9060    -1.7360    -1.6240 ca         1 O8W      -0.107000
     24 C16         -0.5460     1.3950     2.1320 ca         1 O8W      -0.115000
     25 C17          2.1880     0.3710    -0.3860 c          1 O8W       0.616700
     26 O1           2.4680     0.5200    -1.5680 o          1 O8W      -0.599100
     27 C18          4.2620    -1.0300     0.0660 c3         1 O8W       0.031700
     28 C19          4.3600    -2.4290     0.7430 c          1 O8W       0.590100
     29 O            3.6250    -2.7840     1.6580 o          1 O8W      -0.603100
     30 C20          5.6520    -4.5950     0.7290 c3         1 O8W       0.108700
     31 C23          4.7850    -5.6410     0.0010 c3         1 O8W      -0.105100
     32 C21          7.1640    -4.8940     0.6000 c3         1 O8W      -0.093400
     33 C22          8.0680    -3.9130     1.3780 c3         1 O8W      -0.087100
     34 C24          5.4970    -0.1530     0.4150 c3         1 O8W      -0.087400
     35 C25          5.5520     1.2110    -0.3190 c3         1 O8W      -0.070400
     36 C26          6.7780     2.1130     0.0270 c6         1 O8W      -0.061700
     37 C30          6.6240     3.5170    -0.6250 c6         1 O8W      -0.071400
     38 C31          7.8180     4.4430    -0.2880 c6         1 O8W      -0.072900
     39 C29          9.1600     3.7980    -0.7090 c6         1 O8W      -0.074400
     40 C28          9.3320     2.4050    -0.0590 c6         1 O8W      -0.072900
     41 C27          8.1380     1.4750    -0.3890 c6         1 O8W      -0.071400
     42 H1          -9.9790     0.5430     0.7500 ha         1 O8W       0.135500
     43 H2         -11.9960    -0.2690    -0.4640 ha         1 O8W       0.120000
     44 H3          -5.2250    -0.3240     2.5540 h4         1 O8W       0.033100
     45 H4          -3.9330     1.1160     2.3960 hn         1 O8W       0.315500
     46 H5          -2.8750     3.7280     1.4030 h1         1 O8W       0.065200
     47 H6          -2.5300     2.9680     2.9630 h1         1 O8W       0.065200
     48 H7          -1.7620     2.8800    -0.6910 ha         1 O8W       0.116500
     49 H8           2.6740    -0.4860     1.4060 hn         1 O8W       0.321500
     50 H9           0.2800     1.8730    -1.6400 ha         1 O8W       0.123500
     51 H10          1.2580     0.2480     2.2690 ha         1 O8W       0.123500
     52 H11          5.9030    -2.8820    -0.5230 hn         1 O8W       0.308500
     53 H12         -7.9070     1.1610    -1.8010 hn         1 O8W       0.492500
     54 H13         -6.5740     2.2470    -1.4930 hn         1 O8W       0.492500
     55 H14         -7.5390    -2.2950    -1.4160 ha         1 O8W       0.135500
     56 H15         -9.5590    -3.1030    -2.6270 ha         1 O8W       0.120000
     57 H16        -11.7880    -2.0910    -2.1530 ha         1 O8W       0.118000
     58 H17         -0.7770     1.2590     3.1870 ha         1 O8W       0.116500
     59 H18          4.2530    -1.2110    -1.0170 h1         1 O8W       0.076700
     60 H19          5.3980    -4.6370     1.7980 h1         1 O8W       0.083700
     61 H20          4.9950    -5.6410    -1.0760 hc         1 O8W       0.042367
     62 H21          4.9840    -6.6460     0.3910 hc         1 O8W       0.042367
     63 H22          3.7190    -5.4270     0.1440 hc         1 O8W       0.042367
     64 H23          7.3580    -5.9100     0.9660 hc         1 O8W       0.040200
     65 H24          7.4510    -4.8810    -0.4590 hc         1 O8W       0.040200
     66 H25          7.9740    -2.8920     0.9890 hc         1 O8W       0.035367
     67 H26          7.8030    -3.9040     2.4430 hc         1 O8W       0.035367
     68 H27          9.1190    -4.2130     1.2910 hc         1 O8W       0.035367
     69 H28          5.5180     0.0210     1.4990 hc         1 O8W       0.053700
     70 H29          6.4010    -0.7210     0.1720 hc         1 O8W       0.053700
     71 H30          5.5220     1.0290    -1.4010 hc         1 O8W       0.043200
     72 H31          4.6380     1.7670    -0.0800 hc         1 O8W       0.043200
     73 H32          6.7720     2.2400     1.1190 hc         1 O8W       0.046700
     74 H33          6.5380     3.4140    -1.7160 hc         1 O8W       0.037950
     75 H34          5.6920     3.9890    -0.2840 hc         1 O8W       0.037950
     76 H35          7.6940     5.4100    -0.7940 hc         1 O8W       0.038700
     77 H36          7.8300     4.6540     0.7900 hc         1 O8W       0.038700
     78 H37          9.2000     3.7050    -1.8030 hc         1 O8W       0.038700
     79 H38          9.9950     4.4510    -0.4200 hc         1 O8W       0.038700
     80 H39         10.2680     1.9460    -0.4050 hc         1 O8W       0.038700
     81 H40          9.4240     2.5150     1.0310 hc         1 O8W       0.038700
     82 H41          8.2890     0.5180     0.1270 hc         1 O8W       0.037950
     83 H42          8.1320     1.2530    -1.4650 hc         1 O8W       0.037950
@<TRIPOS>BOND
     1     1     2 ar  
     2     1    20 ar  
     3     1    42 1   
     4     2    23 ar  
     5     2    43 1   
     6     3     4 2   
     7     3     6 1   
     8     3    44 1   
     9     4    19 1   
    10     5     6 2   
    11     5    18 1   
    12     5    19 1   
    13     6     8 1   
    14     7     8 1   
    15     7     9 1   
    16     7    45 1   
    17     8    17 2   
    18     9    10 1   
    19     9    46 1   
    20     9    47 1   
    21    10    11 ar  
    22    10    24 ar  
    23    11    13 ar  
    24    11    48 1   
    25    12    25 1   
    26    12    27 1   
    27    12    49 1   
    28    13    14 ar  
    29    13    50 1   
    30    14    15 ar  
    31    14    25 1   
    32    15    24 ar  
    33    15    51 1   
    34    16    28 1   
    35    16    30 1   
    36    16    52 1   
    37    18    53 1   
    38    18    54 1   
    39    19    20 1   
    40    20    21 ar  
    41    21    22 ar  
    42    21    55 1   
    43    22    23 ar  
    44    22    56 1   
    45    23    57 1   
    46    24    58 1   
    47    25    26 2   
    48    27    28 1   
    49    27    34 1   
    50    27    59 1   
    51    28    29 2   
    52    30    31 1   
    53    30    32 1   
    54    30    60 1   
    55    31    61 1   
    56    31    62 1   
    57    31    63 1   
    58    32    33 1   
    59    32    64 1   
    60    32    65 1   
    61    33    66 1   
    62    33    67 1   
    63    33    68 1   
    64    34    35 1   
    65    34    69 1   
    66    34    70 1   
    67    35    36 1   
    68    35    71 1   
    69    35    72 1   
    70    36    37 1   
    71    36    41 1   
    72    36    73 1   
    73    37    38 1   
    74    37    74 1   
    75    37    75 1   
    76    38    39 1   
    77    38    76 1   
    78    38    77 1   
    79    39    40 1   
    80    39    78 1   
    81    39    79 1   
    82    40    41 1   
    83    40    80 1   
    84    40    81 1   
    85    41    82 1   
    86    41    83 1   
@<TRIPOS>SUBSTRUCTURE
     1 O8W         1 TEMP              0 ****  ****    0 ROOT
