@<TRIPOS>MOLECULE
O8X
   49    51     1     0     0
SMALL
No Charge or Current Charge


@<TRIPOS>ATOM
      1 O4          13.9950   -40.4200    31.5430 o          1 O8X      -0.524000
      2 C18         22.2950   -42.3540    28.6120 ca         1 O8X      -0.072000
      3 C19         22.6030   -41.3140    29.5090 ca         1 O8X       0.017100
      4 O3          15.8560   -38.6660    31.6800 o          1 O8X      -0.524000
      5 C17         18.7680   -41.7570    30.4970 ca         1 O8X      -0.128000
      6 C15         13.7840   -39.8700    28.5650 ca         1 O8X      -0.120000
      7 C16         17.8090   -40.7510    30.7050 ca         1 O8X      -0.011000
      8 C14         13.5080   -39.4600    27.2480 ca         1 O8X       0.128100
      9 C1          23.3900   -42.9510    31.1390 ca         1 O8X      -0.151000
     10 C13         14.2720   -38.4420    26.6550 ca         1 O8X      -0.096000
     11 C4          19.5850   -44.5010    28.5880 c3         1 O8X       0.215800
     12 O1          21.9300   -44.5290    26.4960 o          1 O8X      -0.543500
     13 C6          18.3710   -43.0960    30.3210 ca         1 O8X      -0.029300
     14 O2          12.5010   -40.0470    26.5370 oh         1 O8X      -0.531100
     15 C3          22.5330   -43.6980    28.9810 ca         1 O8X      -0.287500
     16 C2          23.0870   -43.9920    30.2450 ca         1 O8X       0.007000
     17 C7          17.0010   -43.4200    30.3510 ca         1 O8X      -0.128000
     18 C12         15.3130   -37.8310    27.3750 ca         1 O8X      -0.092000
     19 C11         15.5930   -38.2370    28.6910 ca         1 O8X      -0.056000
     20 C10         14.8270   -39.2560    29.2970 ca         1 O8X      -0.215500
     21 C9          16.4380   -41.0790    30.7410 ca         1 O8X      -0.263500
     22 C8          16.0370   -42.4180    30.5590 ca         1 O8X      -0.011000
     23 O5          23.0130   -46.1830    28.1330 o          1 O8X      -0.543500
     24 S           22.1360   -45.0450    27.8500 sy         1 O8X       1.156600
     25 C           23.1470   -41.6200    30.7720 ca         1 O8X       0.181100
     26 O           23.4390   -40.6060    31.6340 oh         1 O8X      -0.521100
     27 N           20.6240   -45.5280    28.3690 n7         1 O8X      -0.898300
     28 S1          15.2010   -39.7870    30.9900 sy         1 O8X       1.018000
     29 H17         21.8730   -42.1220    27.6360 ha         1 O8X       0.140000
     30 H16         19.8220   -41.4930    30.4710 ha         1 O8X       0.118500
     31 H14         13.1920   -40.6620    29.0200 ha         1 O8X       0.134000
     32 H15         18.1370   -39.7210    30.8350 ha         1 O8X       0.135500
     33 H1          23.8120   -43.1770    32.1150 ha         1 O8X       0.140000
     34 H12         14.0580   -38.1270    25.6360 ha         1 O8X       0.134000
     35 H4          19.7930   -43.5790    28.0260 h1         1 O8X       0.052200
     36 H5          18.6180   -44.8780    28.2260 h1         1 O8X       0.052200
     37 H6          19.1230   -45.0990    30.6130 hc         1 O8X       0.066700
     38 H7          20.3670   -43.8740    30.5230 hc         1 O8X       0.066700
     39 H13         12.0720   -40.7270    27.1000 ho         1 O8X       0.471000
     40 H2          23.2740   -45.0240    30.5420 ha         1 O8X       0.141000
     41 H8          16.6810   -44.4500    30.2120 ha         1 O8X       0.118500
     42 H11         15.9050   -37.0450    26.9120 ha         1 O8X       0.122000
     43 H10         16.4050   -37.7570    29.2350 ha         1 O8X       0.137000
     44 H9          14.9820   -42.6890    30.5750 ha         1 O8X       0.135500
     45 H18         22.0240   -39.9640    28.2460 ho         1 O8X       0.482000
     46 H           23.1920   -39.7810    31.1590 ho         1 O8X       0.492000
     47 H3          20.3600   -46.0730    27.5500 hn         1 O8X       0.493000
     48 C5          19.4120   -44.1810    30.0880 c3         1 O8X      -0.050100
     49 O6          22.3730   -40.0040    29.1640 oh         1 O8X      -0.559100
@<TRIPOS>BOND
     1     1    28 2   
     2     2     3 ar  
     3     2    15 ar  
     4     2    29 1   
     5     3    25 ar  
     6     3    49 1   
     7     4    28 2   
     8     5     7 ar  
     9     5    13 ar  
    10     5    30 1   
    11     6     8 ar  
    12     6    20 ar  
    13     6    31 1   
    14     7    21 ar  
    15     7    32 1   
    16     8    10 ar  
    17     8    14 1   
    18     9    16 ar  
    19     9    25 ar  
    20     9    33 1   
    21    10    18 ar  
    22    10    34 1   
    23    11    27 1   
    24    11    35 1   
    25    11    36 1   
    26    11    48 1   
    27    12    24 2   
    28    13    17 ar  
    29    13    48 1   
    30    14    39 1   
    31    15    16 ar  
    32    15    24 1   
    33    16    40 1   
    34    17    22 ar  
    35    17    41 1   
    36    18    19 ar  
    37    18    42 1   
    38    19    20 ar  
    39    19    43 1   
    40    20    28 1   
    41    21    22 ar  
    42    21    28 1   
    43    22    44 1   
    44    23    24 2   
    45    24    27 1   
    46    25    26 1   
    47    26    46 1   
    48    27    47 1   
    49    37    48 1   
    50    38    48 1   
    51    45    49 1   
@<TRIPOS>SUBSTRUCTURE
     1 O8X         1 TEMP              0 ****  ****    0 ROOT
