@<TRIPOS>MOLECULE
O8X
   49    51     1     0     0
SMALL
abcg2


@<TRIPOS>ATOM
      1 O4          14.1220   -40.2700    31.5030 o          1 O8X      -0.524000
      2 C18         22.3140   -42.2330    28.7100 ca         1 O8X      -0.072000
      3 C19         22.6800   -41.3370    29.6970 ca         1 O8X       0.017100
      4 O3          15.9890   -38.5780    31.4690 o          1 O8X      -0.524000
      5 C17         18.7300   -41.7340    30.3170 ca         1 O8X      -0.128000
      6 C15         13.8150   -39.9240    28.5770 ca         1 O8X      -0.120000
      7 C16         17.8180   -40.7060    30.4720 ca         1 O8X      -0.011000
      8 C14         13.4830   -39.5960    27.2650 ca         1 O8X       0.128100
      9 C1          23.4830   -43.1650    31.0540 ca         1 O8X      -0.151000
     10 C13         14.2050   -38.6070    26.5980 ca         1 O8X      -0.096000
     11 C4          19.5000   -44.4730    28.6410 c3         1 O8X       0.215800
     12 O1          21.6780   -43.9870    26.4770 o          1 O8X      -0.543500
     13 C6          18.3220   -43.0670    30.3310 ca         1 O8X      -0.029300
     14 O2          12.4800   -40.1930    26.6010 oh         1 O8X      -0.531100
     15 C3          22.5260   -43.5920    28.9090 ca         1 O8X      -0.287500
     16 C2          23.1090   -44.0680    30.0730 ca         1 O8X       0.007000
     17 C7          16.9690   -43.3520    30.4930 ca         1 O8X      -0.128000
     18 C12         15.2440   -37.9550    27.2380 ca         1 O8X      -0.092000
     19 C11         15.5890   -38.2670    28.5460 ca         1 O8X      -0.056000
     20 C10         14.8640   -39.2560    29.1910 ca         1 O8X      -0.215500
     21 C9          16.4750   -41.0180    30.6360 ca         1 O8X      -0.263500
     22 C8          16.0400   -42.3350    30.6480 ca         1 O8X      -0.011000
     23 O5          22.9260   -45.8480    27.5870 o          1 O8X      -0.543500
     24 S           21.9870   -44.7410    27.6870 sy         1 O8X       1.156600
     25 C           23.2720   -41.8030    30.8820 ca         1 O8X       0.181100
     26 O           23.6400   -40.9610    31.8560 oh         1 O8X      -0.521100
     27 N           20.6370   -45.3610    28.4050 n7         1 O8X      -0.898300
     28 S1          15.3020   -39.7090    30.8540 sy         1 O8X       1.018000
     29 H17         21.8560   -41.8700    27.7970 ha         1 O8X       0.140000
     30 H16         19.7800   -41.4970    30.1920 ha         1 O8X       0.118500
     31 H14         13.2560   -40.6900    29.1030 ha         1 O8X       0.134000
     32 H15         18.1580   -39.6780    30.4680 ha         1 O8X       0.135500
     33 H1          23.9410   -43.5150    31.9700 ha         1 O8X       0.140000
     34 H12         13.9460   -38.3550    25.5770 ha         1 O8X       0.134000
     35 H4          19.6060   -43.5430    28.0760 h1         1 O8X       0.052200
     36 H5          18.6020   -44.9550    28.2530 h1         1 O8X       0.052200
     37 H6          19.0250   -45.0660    30.6570 hc         1 O8X       0.066700
     38 H7          20.2900   -43.8510    30.5440 hc         1 O8X       0.066700
     39 H13         12.0530   -40.8620    27.1480 ho         1 O8X       0.471000
     40 H2          23.2670   -45.1260    30.2310 ha         1 O8X       0.141000
     41 H8          16.6340   -44.3820    30.5100 ha         1 O8X       0.118500
     42 H11         15.7940   -37.1870    26.7090 ha         1 O8X       0.122000
     43 H10         16.4010   -37.7480    29.0370 ha         1 O8X       0.137000
     44 H9          14.9940   -42.5760    30.7810 ha         1 O8X       0.135500
     45 H18         22.0640   -39.7550    28.7920 ho         1 O8X       0.482000
     46 H           23.4280   -40.0480    31.6240 ho         1 O8X       0.492000
     47 H3          20.4060   -46.2780    28.0390 hn         1 O8X       0.493000
     48 C5          19.3300   -44.1600    30.1290 c3         1 O8X      -0.050100
     49 O6          22.5010   -40.0040    29.6150 oh         1 O8X      -0.559100
@<TRIPOS>BOND
     1     1    28 2   
     2     2     3 ar  
     3     2    15 ar  
     4     2    29 1   
     5     3    25 ar  
     6     3    49 1   
     7     4    28 2   
     8     5     7 ar  
     9     5    13 ar  
    10     5    30 1   
    11     6     8 ar  
    12     6    20 ar  
    13     6    31 1   
    14     7    21 ar  
    15     7    32 1   
    16     8    10 ar  
    17     8    14 1   
    18     9    16 ar  
    19     9    25 ar  
    20     9    33 1   
    21    10    18 ar  
    22    10    34 1   
    23    11    27 1   
    24    11    35 1   
    25    11    36 1   
    26    11    48 1   
    27    12    24 2   
    28    13    17 ar  
    29    13    48 1   
    30    14    39 1   
    31    15    16 ar  
    32    15    24 1   
    33    16    40 1   
    34    17    22 ar  
    35    17    41 1   
    36    18    19 ar  
    37    18    42 1   
    38    19    20 ar  
    39    19    43 1   
    40    20    28 1   
    41    21    22 ar  
    42    21    28 1   
    43    22    44 1   
    44    23    24 2   
    45    24    27 1   
    46    25    26 1   
    47    26    46 1   
    48    27    47 1   
    49    37    48 1   
    50    38    48 1   
    51    45    49 1   
@<TRIPOS>SUBSTRUCTURE
     1 O8X         1 TEMP              0 ****  ****    0 ROOT
