@<TRIPOS>MOLECULE
O8Z
   86    89     1     0     0
SMALL
abcg2


@<TRIPOS>ATOM
      1 C4           8.1050     2.3400     2.2350 ca         1 O8Z      -0.105500
      2 C5           9.1500     3.1970     2.5390 ca         1 O8Z      -0.102500
      3 C6           5.6400    -0.8350     1.3480 cc         1 O8Z       0.302900
      4 N1           6.5690    -0.1240     1.9240 nd         1 O8Z      -0.512800
      5 C7           6.6480     0.2580    -0.2940 cd         1 O8Z       0.330000
      6 C8           5.6180    -0.6550    -0.0550 cc         1 O8Z      -0.372600
      7 N2           3.8070    -2.0820    -0.6630 ns         1 O8Z      -0.498900
      8 C9           4.7470    -1.2100    -1.0820 c          1 O8Z       0.669700
      9 C10          2.8610    -2.7290    -1.5420 c3         1 O8Z       0.146300
     10 C11          1.4980    -2.0810    -1.5200 ca         1 O8Z      -0.092300
     11 C12          1.3180    -0.7790    -1.9840 ca         1 O8Z      -0.107500
     12 N3          -3.2580    -0.6540    -0.5720 ns         1 O8Z      -0.485900
     13 C13          0.0660    -0.1910    -1.9690 ca         1 O8Z      -0.074000
     14 C14         -1.0360    -0.8860    -1.4700 ca         1 O8Z      -0.141600
     15 C15         -0.8610    -2.1880    -1.0130 ca         1 O8Z      -0.074000
     16 N4          -5.5040     2.1270    -0.5640 ns         1 O8Z      -0.500900
     17 O2           4.8750    -0.9000    -2.2680 o          1 O8Z      -0.655100
     18 N5           7.1020     0.7770    -1.4580 nv         1 O8Z      -1.068000
     19 N            7.1920     0.5340     0.9130 na         1 O8Z       0.169000
     20 C3           8.2530     1.4180     1.2040 ca         1 O8Z       0.006800
     21 C2           9.4390     1.3500     0.4830 ca         1 O8Z      -0.105500
     22 C1          10.4730     2.2260     0.7850 ca         1 O8Z      -0.102500
     23 C           10.3340     3.1480     1.8120 ca         1 O8Z      -0.107000
     24 C16          0.3960    -2.7770    -1.0400 ca         1 O8Z      -0.107500
     25 C17         -2.3710    -0.2210    -1.4860 c          1 O8Z       0.614700
     26 O1          -2.6470     0.6550    -2.2940 o          1 O8Z      -0.599100
     27 C18         -4.5850    -0.0990    -0.4870 c3         1 O8Z       0.034700
     28 C19         -4.5370     1.3640    -0.0400 c          1 O8Z       0.591100
     29 O           -3.7100     1.7610     0.7660 o          1 O8Z      -0.601100
     30 C20         -5.7440     3.5100    -0.2070 c3         1 O8Z       0.103000
     31 C21         -6.3350     4.2690    -1.3860 c3         1 O8Z      -0.093400
     32 C22         -6.7720     5.6940    -1.0440 c3         1 O8Z      -0.056700
     33 C24         -5.6130     6.5450    -0.5310 c3         1 O8Z      -0.089100
     34 C23         -7.4210     6.3460    -2.2600 c3         1 O8Z      -0.089100
     35 C25         -5.4180    -0.9130     0.5050 c3         1 O8Z      -0.087400
     36 C26         -5.6860    -2.3350     0.0240 c3         1 O8Z      -0.072400
     37 C27         -6.5430    -3.1660     0.9760 c6         1 O8Z      -0.060700
     38 C32         -6.9270    -4.4950     0.3240 c6         1 O8Z      -0.071400
     39 C31         -7.7760    -5.3670     1.2420 c6         1 O8Z      -0.072900
     40 C30         -7.0780    -5.6130     2.5750 c6         1 O8Z      -0.074400
     41 C29         -6.6940    -4.2950     3.2400 c6         1 O8Z      -0.072900
     42 C28         -5.8510    -3.4220     2.3160 c6         1 O8Z      -0.071400
     43 H1           7.1790     2.3820     2.7930 ha         1 O8Z       0.135000
     44 H2           9.0370     3.9130     3.3430 ha         1 O8Z       0.120000
     45 H3           5.0060    -1.4670     1.9520 h4         1 O8Z       0.033100
     46 H4           3.7130    -2.2710     0.3210 hn         1 O8Z       0.314500
     47 H5           3.2650    -2.7180    -2.5530 h1         1 O8Z       0.064200
     48 H6           2.7730    -3.7740    -1.2450 h1         1 O8Z       0.064200
     49 H7           2.1640    -0.2230    -2.3730 ha         1 O8Z       0.122500
     50 H8          -2.9340    -1.2100     0.2030 hn         1 O8Z       0.324500
     51 H9          -0.0580     0.8170    -2.3430 ha         1 O8Z       0.124000
     52 H10         -1.7000    -2.7710    -0.6550 ha         1 O8Z       0.124000
     53 H11         -6.1460     1.7020    -1.2140 hn         1 O8Z       0.310500
     54 H12          7.5430     1.6840    -1.4280 hn         1 O8Z       0.490500
     55 H13          6.4780     0.6430    -2.2380 hn         1 O8Z       0.490500
     56 H14          9.5650     0.6130    -0.2990 ha         1 O8Z       0.135000
     57 H15         11.3960     2.1720     0.2220 ha         1 O8Z       0.120000
     58 H16         11.1450     3.8240     2.0490 ha         1 O8Z       0.118000
     59 H17          0.5130    -3.7950    -0.6890 ha         1 O8Z       0.122500
     60 H18         -5.0560    -0.1620    -1.4730 h1         1 O8Z       0.072700
     61 H19         -6.4220     3.5670     0.6520 h1         1 O8Z       0.053700
     62 H20         -4.7970     3.9520     0.1020 h1         1 O8Z       0.053700
     63 H21         -5.6050     4.2970    -2.2020 hc         1 O8Z       0.045200
     64 H22         -7.2050     3.7200    -1.7630 hc         1 O8Z       0.045200
     65 H23         -7.5260     5.6320    -0.2500 hc         1 O8Z       0.043700
     66 H24         -5.9370     7.5700    -0.3430 hc         1 O8Z       0.034367
     67 H25         -5.1980     6.1630     0.4020 hc         1 O8Z       0.034367
     68 H26         -4.8030     6.5830    -1.2640 hc         1 O8Z       0.034367
     69 H27         -8.2740     5.7640    -2.6150 hc         1 O8Z       0.034367
     70 H28         -7.7800     7.3500    -2.0280 hc         1 O8Z       0.034367
     71 H29         -6.7100     6.4300    -3.0850 hc         1 O8Z       0.034367
     72 H30         -4.9090    -0.9110     1.4740 hc         1 O8Z       0.055700
     73 H31         -6.3710    -0.4010     0.6600 hc         1 O8Z       0.055700
     74 H32         -6.1850    -2.2810    -0.9490 hc         1 O8Z       0.042200
     75 H33         -4.7410    -2.8620    -0.1510 hc         1 O8Z       0.042200
     76 H34         -7.4700    -2.6090     1.1740 hc         1 O8Z       0.045700
     77 H35         -7.4570    -4.3050    -0.6140 hc         1 O8Z       0.037950
     78 H36         -6.0100    -5.0340     0.0540 hc         1 O8Z       0.037950
     79 H37         -8.7360    -4.8720     1.4250 hc         1 O8Z       0.039200
     80 H38         -8.0070    -6.3160     0.7520 hc         1 O8Z       0.039200
     81 H39         -7.7210    -6.1970     3.2380 hc         1 O8Z       0.038700
     82 H40         -6.1770    -6.2140     2.4100 hc         1 O8Z       0.038700
     83 H41         -7.6050    -3.7530     3.5160 hc         1 O8Z       0.039200
     84 H42         -6.1540    -4.4840     4.1710 hc         1 O8Z       0.039200
     85 H43         -4.8880    -3.9130     2.1250 hc         1 O8Z       0.037950
     86 H44         -5.6200    -2.4780     2.8160 hc         1 O8Z       0.037950
@<TRIPOS>BOND
     1     1     2 ar  
     2     1    20 ar  
     3     1    43 1   
     4     2    23 ar  
     5     2    44 1   
     6     3     4 2   
     7     3     6 1   
     8     3    45 1   
     9     4    19 1   
    10     5     6 2   
    11     5    18 1   
    12     5    19 1   
    13     6     8 1   
    14     7     8 1   
    15     7     9 1   
    16     7    46 1   
    17     8    17 2   
    18     9    10 1   
    19     9    47 1   
    20     9    48 1   
    21    10    11 ar  
    22    10    24 ar  
    23    11    13 ar  
    24    11    49 1   
    25    12    25 1   
    26    12    27 1   
    27    12    50 1   
    28    13    14 ar  
    29    13    51 1   
    30    14    15 ar  
    31    14    25 1   
    32    15    24 ar  
    33    15    52 1   
    34    16    28 1   
    35    16    30 1   
    36    16    53 1   
    37    18    54 1   
    38    18    55 1   
    39    19    20 1   
    40    20    21 ar  
    41    21    22 ar  
    42    21    56 1   
    43    22    23 ar  
    44    22    57 1   
    45    23    58 1   
    46    24    59 1   
    47    25    26 2   
    48    27    28 1   
    49    27    35 1   
    50    27    60 1   
    51    28    29 2   
    52    30    31 1   
    53    30    61 1   
    54    30    62 1   
    55    31    32 1   
    56    31    63 1   
    57    31    64 1   
    58    32    33 1   
    59    32    34 1   
    60    32    65 1   
    61    33    66 1   
    62    33    67 1   
    63    33    68 1   
    64    34    69 1   
    65    34    70 1   
    66    34    71 1   
    67    35    36 1   
    68    35    72 1   
    69    35    73 1   
    70    36    37 1   
    71    36    74 1   
    72    36    75 1   
    73    37    38 1   
    74    37    42 1   
    75    37    76 1   
    76    38    39 1   
    77    38    77 1   
    78    38    78 1   
    79    39    40 1   
    80    39    79 1   
    81    39    80 1   
    82    40    41 1   
    83    40    81 1   
    84    40    82 1   
    85    41    42 1   
    86    41    83 1   
    87    41    84 1   
    88    42    85 1   
    89    42    86 1   
@<TRIPOS>SUBSTRUCTURE
     1 O8Z         1 TEMP              0 ****  ****    0 ROOT
