@<TRIPOS>MOLECULE
O8Z
   86    89     1     0     0
SMALL
No Charge or Current Charge


@<TRIPOS>ATOM
      1 C4           7.8270     3.0920    -1.4480 ca         1 O8Z      -0.105500
      2 C5           8.8630     3.7790    -2.1050 ca         1 O8Z      -0.102500
      3 C6           5.5810     0.7730     1.3870 cc         1 O8Z       0.302900
      4 N1           6.4470     1.7620     1.2520 nd         1 O8Z      -0.512800
      5 C7           6.6310     0.1610    -0.4640 cd         1 O8Z       0.330000
      6 C8           5.6450    -0.2180     0.3810 cc         1 O8Z      -0.372600
      7 N2           3.8890    -1.5440     1.2850 ns         1 O8Z      -0.498900
      8 C9           4.8050    -1.4140     0.2700 c          1 O8Z       0.669700
      9 C10          2.9080    -2.6260     1.3890 c3         1 O8Z       0.146300
     10 C11          1.5510    -2.1930     0.8530 ca         1 O8Z      -0.092300
     11 C12          1.2450    -2.3450    -0.5100 ca         1 O8Z      -0.107500
     12 N3          -3.2130    -0.3820     0.1540 ns         1 O8Z      -0.485900
     13 C13         -0.0060    -1.9430    -1.0080 ca         1 O8Z      -0.074000
     14 C14         -0.9790    -1.3770    -0.1540 ca         1 O8Z      -0.141600
     15 C15         -0.6610    -1.2260     1.2190 ca         1 O8Z      -0.074000
     16 N4          -5.9920     2.1000     0.0820 ns         1 O8Z      -0.500900
     17 O2           4.8970    -2.2300    -0.6350 o          1 O8Z      -0.655100
     18 N5           7.1090    -0.4340    -1.6020 nv         1 O8Z      -1.068000
     19 N            7.0960     1.3650     0.0980 na         1 O8Z       0.169000
     20 C3           8.1260     2.0440    -0.5560 ca         1 O8Z       0.006800
     21 C2           9.4700     1.6930    -0.3200 ca         1 O8Z      -0.105500
     22 C1          10.5060     2.3800    -0.9780 ca         1 O8Z      -0.102500
     23 C           10.2020     3.4220    -1.8710 ca         1 O8Z      -0.107000
     24 C16          0.5910    -1.6310     1.7130 ca         1 O8Z      -0.107500
     25 C17         -2.3180    -0.9550    -0.7260 c          1 O8Z       0.614700
     26 O1          -2.5970    -1.1080    -1.9080 o          1 O8Z      -0.599100
     27 C18         -4.5780     0.0800    -0.1870 c3         1 O8Z       0.034700
     28 C19         -4.8880     1.4170     0.5500 c          1 O8Z       0.591100
     29 O           -4.2080     1.8430     1.4770 o          1 O8Z      -0.601100
     30 C20         -6.4560     3.3910     0.5970 c3         1 O8Z       0.103000
     31 C21         -5.6150     4.5670     0.0520 c3         1 O8Z      -0.093400
     32 C22         -6.1230     5.9720     0.4770 c3         1 O8Z      -0.056700
     33 C24         -6.0920     6.1810     2.0100 c3         1 O8Z      -0.089100
     34 C23         -5.3310     7.0870    -0.2440 c3         1 O8Z      -0.089100
     35 C25         -5.6400    -1.0050     0.1480 c3         1 O8Z      -0.087400
     36 C26         -5.4690    -2.3350    -0.6290 c3         1 O8Z      -0.072400
     37 C27         -6.6170    -3.3740    -0.4390 c6         1 O8Z      -0.060700
     38 C32         -6.4130    -4.5930    -1.3830 c6         1 O8Z      -0.071400
     39 C31         -7.5450    -5.6370    -1.2250 c6         1 O8Z      -0.072900
     40 C30         -7.6710    -6.1070     0.2440 c6         1 O8Z      -0.074400
     41 C29         -7.8840    -4.9040     1.1930 c6         1 O8Z      -0.072900
     42 C28         -6.7550    -3.8540     1.0360 c6         1 O8Z      -0.071400
     43 H1           6.7910     3.3730    -1.6310 ha         1 O8Z       0.135000
     44 H2           8.6290     4.5870    -2.7950 ha         1 O8Z       0.120000
     45 H3           4.9070     0.8040     2.2330 h4         1 O8Z       0.033100
     46 H4           3.8770    -0.8200     1.9890 hn         1 O8Z       0.314500
     47 H5           3.2630    -3.5090     0.8400 h1         1 O8Z       0.064200
     48 H6           2.8140    -2.9120     2.4450 h1         1 O8Z       0.064200
     49 H7           1.9800    -2.7750    -1.1880 ha         1 O8Z       0.122500
     50 H8          -2.8920    -0.2430     1.1030 hn         1 O8Z       0.324500
     51 H9          -0.2150    -2.0730    -2.0680 ha         1 O8Z       0.124000
     52 H10         -1.3720    -0.7990     1.9220 ha         1 O8Z       0.124000
     53 H11         -6.4990     1.6790    -0.6880 hn         1 O8Z       0.310500
     54 H12          7.7360     0.0740    -2.2220 hn         1 O8Z       0.490500
     55 H13          6.6110    -1.2400    -1.9790 hn         1 O8Z       0.490500
     56 H14          9.7090     0.8880     0.3720 ha         1 O8Z       0.135000
     57 H15         11.5430     2.1050    -0.7940 ha         1 O8Z       0.120000
     58 H16         11.0040     3.9530    -2.3790 ha         1 O8Z       0.118000
     59 H17          0.8160    -1.5040     2.7700 ha         1 O8Z       0.122500
     60 H18         -4.6240     0.2990    -1.2610 h1         1 O8Z       0.072700
     61 H19         -7.5050     3.5250     0.3030 h1         1 O8Z       0.053700
     62 H20         -6.4110     3.3700     1.6930 h1         1 O8Z       0.053700
     63 H21         -4.5730     4.4470     0.3730 hc         1 O8Z       0.045200
     64 H22         -5.6150     4.5090    -1.0440 hc         1 O8Z       0.045200
     65 H23         -7.1680     6.0590     0.1540 hc         1 O8Z       0.043700
     66 H24         -6.4230     7.1940     2.2680 hc         1 O8Z       0.034367
     67 H25         -6.7590     5.4770     2.5210 hc         1 O8Z       0.034367
     68 H26         -5.0770     6.0430     2.4030 hc         1 O8Z       0.034367
     69 H27         -5.4020     6.9720    -1.3320 hc         1 O8Z       0.034367
     70 H28         -5.7280     8.0750     0.0160 hc         1 O8Z       0.034367
     71 H29         -4.2710     7.0580     0.0370 hc         1 O8Z       0.034367
     72 H30         -5.6060    -1.2020     1.2260 hc         1 O8Z       0.055700
     73 H31         -6.6390    -0.6050    -0.0670 hc         1 O8Z       0.055700
     74 H32         -5.3820    -2.0920    -1.6960 hc         1 O8Z       0.042200
     75 H33         -4.5160    -2.7950    -0.3430 hc         1 O8Z       0.042200
     76 H34         -7.5480    -2.8670    -0.7300 hc         1 O8Z       0.045700
     77 H35         -6.3730    -4.2560    -2.4280 hc         1 O8Z       0.037950
     78 H36         -5.4450    -5.0690    -1.1740 hc         1 O8Z       0.037950
     79 H37         -8.4990    -5.2040    -1.5580 hc         1 O8Z       0.039200
     80 H38         -7.3500    -6.5000    -1.8760 hc         1 O8Z       0.039200
     81 H39         -8.5080    -6.8120     0.3410 hc         1 O8Z       0.038700
     82 H40         -6.7650    -6.6550     0.5370 hc         1 O8Z       0.038700
     83 H41         -8.8550    -4.4350     0.9840 hc         1 O8Z       0.039200
     84 H42         -7.9240    -5.2540     2.2340 hc         1 O8Z       0.039200
     85 H43         -5.8030    -4.2830     1.3800 hc         1 O8Z       0.037950
     86 H44         -6.9710    -3.0050     1.6980 hc         1 O8Z       0.037950
@<TRIPOS>BOND
     1     1     2 ar  
     2     1    20 ar  
     3     1    43 1   
     4     2    23 ar  
     5     2    44 1   
     6     3     4 2   
     7     3     6 1   
     8     3    45 1   
     9     4    19 1   
    10     5     6 2   
    11     5    18 1   
    12     5    19 1   
    13     6     8 1   
    14     7     8 1   
    15     7     9 1   
    16     7    46 1   
    17     8    17 2   
    18     9    10 1   
    19     9    47 1   
    20     9    48 1   
    21    10    11 ar  
    22    10    24 ar  
    23    11    13 ar  
    24    11    49 1   
    25    12    25 1   
    26    12    27 1   
    27    12    50 1   
    28    13    14 ar  
    29    13    51 1   
    30    14    15 ar  
    31    14    25 1   
    32    15    24 ar  
    33    15    52 1   
    34    16    28 1   
    35    16    30 1   
    36    16    53 1   
    37    18    54 1   
    38    18    55 1   
    39    19    20 1   
    40    20    21 ar  
    41    21    22 ar  
    42    21    56 1   
    43    22    23 ar  
    44    22    57 1   
    45    23    58 1   
    46    24    59 1   
    47    25    26 2   
    48    27    28 1   
    49    27    35 1   
    50    27    60 1   
    51    28    29 2   
    52    30    31 1   
    53    30    61 1   
    54    30    62 1   
    55    31    32 1   
    56    31    63 1   
    57    31    64 1   
    58    32    33 1   
    59    32    34 1   
    60    32    65 1   
    61    33    66 1   
    62    33    67 1   
    63    33    68 1   
    64    34    69 1   
    65    34    70 1   
    66    34    71 1   
    67    35    36 1   
    68    35    72 1   
    69    35    73 1   
    70    36    37 1   
    71    36    74 1   
    72    36    75 1   
    73    37    38 1   
    74    37    42 1   
    75    37    76 1   
    76    38    39 1   
    77    38    77 1   
    78    38    78 1   
    79    39    40 1   
    80    39    79 1   
    81    39    80 1   
    82    40    41 1   
    83    40    81 1   
    84    40    82 1   
    85    41    42 1   
    86    41    83 1   
    87    41    84 1   
    88    42    85 1   
    89    42    86 1   
@<TRIPOS>SUBSTRUCTURE
     1 O8Z         1 TEMP              0 ****  ****    0 ROOT
