@<TRIPOS>MOLECULE
O91
   46    48     1     0     0
SMALL
No Charge or Current Charge


@<TRIPOS>ATOM
      1 C10         18.2820   -67.2920   -38.8620 ca         1 O91      -0.174500
      2 C20         15.3790   -65.4940   -36.0090 c3         1 O91       0.150900
      3 C24         18.8390   -68.0530   -41.2110 c          1 O91       0.523200
      4 C28         19.7050   -68.0300   -43.5710 cc         1 O91      -0.147000
      5 C01         15.7000   -66.4830   -39.6190 ca         1 O91       0.136100
      6 C03         13.9200   -66.1630   -41.3180 c3         1 O91       0.145400
      7 C07         16.5780   -67.0450   -40.5680 ca         1 O91      -0.174500
      8 C09         17.8800   -67.4390   -40.2040 ca         1 O91      -0.089600
      9 C12         17.4190   -66.7350   -37.8880 ca         1 O91       0.136100
     10 C14         19.1550   -67.0000   -36.1260 c3         1 O91       0.145400
     11 C18         16.1070   -66.3190   -38.2730 ca         1 O91       0.050100
     12 C30         18.8810   -67.4870   -42.6120 cd         1 O91       0.163500
     13 C32         18.5800   -66.3010   -44.4170 cc         1 O91       0.461000
     14 C33         17.1460   -63.3380   -47.2030 ca         1 O91      -0.061300
     15 C34         16.6350   -62.2940   -48.1840 c3         1 O91      -0.049800
     16 C38         18.0980   -64.2880   -47.6090 ca         1 O91      -0.112000
     17 C40         18.5700   -65.2570   -46.7060 ca         1 O91      -0.086000
     18 C42         18.0960   -65.2930   -45.3740 ca         1 O91      -0.129500
     19 C43         17.1360   -64.3340   -44.9770 ca         1 O91      -0.086000
     20 C45         16.6660   -63.3670   -45.8820 ca         1 O91      -0.112000
     21 N26         19.5020   -67.2750   -44.7090 na         1 O91      -0.289500
     22 N31         18.1940   -66.4040   -43.1560 nd         1 O91      -0.650000
     23 O02         14.4200   -66.0790   -39.9710 os         1 O91      -0.326100
     24 O13         17.8480   -66.5980   -36.5770 os         1 O91      -0.326100
     25 O19         15.1670   -65.7530   -37.4080 os         1 O91      -0.331100
     26 O25         19.5610   -68.9880   -40.8700 o          1 O91      -0.543100
     27 H1          19.2840   -67.6150   -38.5950 ha         1 O91       0.143000
     28 H2          14.4820   -65.0400   -35.5700 h1         1 O91       0.033700
     29 H3          15.5840   -66.4240   -35.4630 h1         1 O91       0.033700
     30 H4          16.2130   -64.7960   -35.8610 h1         1 O91       0.033700
     31 H5          20.3910   -68.8690   -43.5220 h4         1 O91       0.176000
     32 H6          12.8960   -65.7740   -41.3670 h1         1 O91       0.042033
     33 H7          14.5410   -65.5710   -42.0020 h1         1 O91       0.042033
     34 H8          13.9040   -67.2040   -41.6650 h1         1 O91       0.042033
     35 H9          16.2550   -67.1940   -41.5940 ha         1 O91       0.143000
     36 H10         19.2640   -66.7950   -35.0530 h1         1 O91       0.042033
     37 H11         19.3090   -68.0750   -36.2830 h1         1 O91       0.042033
     38 H12         19.9390   -66.4460   -36.6570 h1         1 O91       0.042033
     39 H13         15.7550   -62.6630   -48.7240 hc         1 O91       0.045700
     40 H14         16.3490   -61.3680   -47.6700 hc         1 O91       0.045700
     41 H15         17.3990   -62.0340   -48.9270 hc         1 O91       0.045700
     42 H16         18.4750   -64.2790   -48.6300 ha         1 O91       0.115000
     43 H17         19.3070   -65.9760   -47.0550 ha         1 O91       0.118000
     44 H18         16.7480   -64.3330   -43.9600 ha         1 O91       0.118000
     45 H19         15.9270   -62.6400   -45.5550 ha         1 O91       0.115000
     46 H20         19.9480   -67.4020   -45.6070 hn         1 O91       0.358000
@<TRIPOS>BOND
     1     1     8 ar  
     2     1     9 ar  
     3     1    27 1   
     4     2    25 1   
     5     2    28 1   
     6     2    29 1   
     7     2    30 1   
     8     3     8 1   
     9     3    12 1   
    10     3    26 2   
    11     4    12 2   
    12     4    21 1   
    13     4    31 1   
    14     5     7 ar  
    15     5    11 ar  
    16     5    23 1   
    17     6    23 1   
    18     6    32 1   
    19     6    33 1   
    20     6    34 1   
    21     7     8 ar  
    22     7    35 1   
    23     9    11 ar  
    24     9    24 1   
    25    10    24 1   
    26    10    36 1   
    27    10    37 1   
    28    10    38 1   
    29    11    25 1   
    30    12    22 1   
    31    13    18 1   
    32    13    21 1   
    33    13    22 2   
    34    14    15 1   
    35    14    16 ar  
    36    14    20 ar  
    37    15    39 1   
    38    15    40 1   
    39    15    41 1   
    40    16    17 ar  
    41    16    42 1   
    42    17    18 ar  
    43    17    43 1   
    44    18    19 ar  
    45    19    20 ar  
    46    19    44 1   
    47    20    45 1   
    48    21    46 1   
@<TRIPOS>SUBSTRUCTURE
     1 O91         1 TEMP              0 ****  ****    0 ROOT
