@<TRIPOS>MOLECULE
O91
   46    48     1     0     0
SMALL
abcg2


@<TRIPOS>ATOM
      1 C10         18.3210   -67.5380   -38.8010 ca         1 O91      -0.174500
      2 C20         15.3150   -64.9650   -36.8380 c3         1 O91       0.150900
      3 C24         19.0890   -67.7960   -41.1240 c          1 O91       0.523200
      4 C28         19.9530   -67.8180   -43.4800 cc         1 O91      -0.147000
      5 C01         15.8860   -66.4410   -39.6050 ca         1 O91       0.136100
      6 C03         14.3600   -65.6840   -41.2490 c3         1 O91       0.145400
      7 C07         16.8330   -66.7990   -40.5600 ca         1 O91      -0.174500
      8 C09         18.0490   -67.3420   -40.1560 ca         1 O91      -0.089600
      9 C12         17.3820   -67.1700   -37.8470 ca         1 O91       0.136100
     10 C14         18.7620   -67.8560   -36.0490 c3         1 O91       0.145400
     11 C18         16.1540   -66.6290   -38.2470 ca         1 O91       0.050100
     12 C30         19.1070   -67.3240   -42.5130 cd         1 O91       0.163500
     13 C32         18.6760   -66.2300   -44.3040 cc         1 O91       0.461000
     14 C33         16.9040   -63.4840   -47.0630 ca         1 O91      -0.061300
     15 C34         16.2450   -62.5390   -48.0230 c3         1 O91      -0.049800
     16 C38         17.8400   -64.4190   -47.4970 ca         1 O91      -0.112000
     17 C40         18.4250   -65.3150   -46.6150 ca         1 O91      -0.086000
     18 C42         18.0900   -65.2990   -45.2630 ca         1 O91      -0.129500
     19 C43         17.1570   -64.3600   -44.8200 ca         1 O91      -0.086000
     20 C45         16.5780   -63.4700   -45.7060 ca         1 O91      -0.112000
     21 N26         19.6650   -67.1200   -44.5980 na         1 O91      -0.289500
     22 N31         18.3280   -66.3380   -43.0480 nd         1 O91      -0.650000
     23 O02         14.6850   -65.9120   -39.8920 os         1 O91      -0.326100
     24 O13         17.5500   -67.3010   -36.5210 os         1 O91      -0.326100
     25 O19         15.2240   -66.3020   -37.3180 os         1 O91      -0.331100
     26 O25         19.9560   -68.5750   -40.7610 o          1 O91      -0.543100
     27 H1          19.2680   -67.9670   -38.5090 ha         1 O91       0.143000
     28 H2          14.5340   -64.8410   -36.0900 h1         1 O91       0.033700
     29 H3          16.2820   -64.7690   -36.3710 h1         1 O91       0.033700
     30 H4          15.1540   -64.2380   -37.6370 h1         1 O91       0.033700
     31 H5          20.7070   -68.5860   -43.4610 h4         1 O91       0.176000
     32 H6          13.3670   -65.2430   -41.2580 h1         1 O91       0.042033
     33 H7          15.0570   -64.9890   -41.7250 h1         1 O91       0.042033
     34 H8          14.3370   -66.6120   -41.8260 h1         1 O91       0.042033
     35 H9          16.6380   -66.6500   -41.6100 ha         1 O91       0.143000
     36 H10         18.6900   -67.8750   -34.9640 h1         1 O91       0.042033
     37 H11         18.9110   -68.8770   -36.4110 h1         1 O91       0.042033
     38 H12         19.6270   -67.2510   -36.3330 h1         1 O91       0.042033
     39 H13         15.2750   -62.9270   -48.3410 hc         1 O91       0.045700
     40 H14         16.0680   -61.5650   -47.5670 hc         1 O91       0.045700
     41 H15         16.8470   -62.3930   -48.9190 hc         1 O91       0.045700
     42 H16         18.1190   -64.4520   -48.5430 ha         1 O91       0.115000
     43 H17         19.1410   -66.0260   -47.0080 ha         1 O91       0.118000
     44 H18         16.8880   -64.3290   -43.7720 ha         1 O91       0.118000
     45 H19         15.8590   -62.7490   -45.3360 ha         1 O91       0.115000
     46 H20         20.1300   -67.2420   -45.4840 hn         1 O91       0.358000
@<TRIPOS>BOND
     1     1     8 ar  
     2     1     9 ar  
     3     1    27 1   
     4     2    25 1   
     5     2    28 1   
     6     2    29 1   
     7     2    30 1   
     8     3     8 1   
     9     3    12 1   
    10     3    26 2   
    11     4    12 2   
    12     4    21 1   
    13     4    31 1   
    14     5     7 ar  
    15     5    11 ar  
    16     5    23 1   
    17     6    23 1   
    18     6    32 1   
    19     6    33 1   
    20     6    34 1   
    21     7     8 ar  
    22     7    35 1   
    23     9    11 ar  
    24     9    24 1   
    25    10    24 1   
    26    10    36 1   
    27    10    37 1   
    28    10    38 1   
    29    11    25 1   
    30    12    22 1   
    31    13    18 1   
    32    13    21 1   
    33    13    22 2   
    34    14    15 1   
    35    14    16 ar  
    36    14    20 ar  
    37    15    39 1   
    38    15    40 1   
    39    15    41 1   
    40    16    17 ar  
    41    16    42 1   
    42    17    18 ar  
    43    17    43 1   
    44    18    19 ar  
    45    19    20 ar  
    46    19    44 1   
    47    20    45 1   
    48    21    46 1   
@<TRIPOS>SUBSTRUCTURE
     1 O91         1 TEMP              0 ****  ****    0 ROOT
