@<TRIPOS>MOLECULE
O92
   44    46     1     0     0
SMALL
bcc


@<TRIPOS>ATOM
      1 C12          6.6680    -0.1630    -2.6960 c3         1 O92       0.095300
      2 N3           5.6540    -0.0900    -1.6740 ns         1 O92      -0.546900
      3 C6           5.8230     0.6010    -0.5470 c          1 O92       0.590600
      4 O1           6.8530     1.2250    -0.2920 o          1 O92      -0.643100
      5 C4           4.6660     0.5740     0.3970 ca         1 O92       0.160500
      6 N2           3.6050    -0.1090     0.0260 nb         1 O92      -0.617000
      7 C3           4.6810     1.2550     1.6470 ca         1 O92       0.640900
      8 N4           5.7100     1.9800     2.0850 nv         1 O92      -0.941500
      9 N1           3.6090     1.1670     2.4460 nb         1 O92      -0.745000
     10 C2           2.5710     0.4730     2.0400 ca         1 O92       0.400900
     11 C1           2.5340    -0.1780     0.8040 cp         1 O92       0.259500
     12 C5           1.3810    -0.9580     0.3330 cp         1 O92      -0.131500
     13 C11          0.1090    -0.7650     0.8680 ca         1 O92      -0.028000
     14 C7           1.5320    -1.9070    -0.6770 ca         1 O92      -0.047000
     15 C8           0.4560    -2.6490    -1.1310 ca         1 O92      -0.149000
     16 C9          -0.8030    -2.4600    -0.5820 ca         1 O92       0.115400
     17 CL1         -2.1100    -3.4010    -1.1860 cl         1 O92      -0.066400
     18 C10         -0.9730    -1.5080     0.4190 ca         1 O92      -0.266500
     19 S1          -2.5540    -1.2040     1.1690 sy         1 O92       1.308200
     20 O2          -3.1500    -2.4550     1.5940 o          1 O92      -0.599300
     21 O3          -2.3670    -0.1360     2.1340 o          1 O92      -0.599300
     22 N5          -3.4500    -0.6700    -0.1210 nu         1 O92      -0.717500
     23 C14         -3.2880     0.6720    -0.5310 ca         1 O92       0.091600
     24 C17         -2.3330     1.0040    -1.4850 ca         1 O92      -0.104000
     25 C18         -2.1670     2.3240    -1.8740 ca         1 O92      -0.112000
     26 C15         -2.9600     3.3250    -1.3300 ca         1 O92      -0.139000
     27 C16         -3.9130     2.9890    -0.3900 ca         1 O92       0.110900
     28 F2          -4.6950     3.9270     0.1490 f          1 O92      -0.119900
     29 C13         -4.0710     1.6770     0.0200 ca         1 O92       0.093900
     30 F1          -4.9900     1.3790     0.9350 f          1 O92      -0.115900
     31 H121         6.9410     0.8270    -3.0610 h1         1 O92       0.042367
     32 H122         7.5720    -0.6560    -2.3360 h1         1 O92       0.042367
     33 H123         6.2750    -0.7380    -3.5290 h1         1 O92       0.042367
     34 H3           4.7790    -0.5730    -1.8040 hn         1 O92       0.340500
     35 H41N         6.5400     2.0760     1.5230 hn         1 O92       0.467800
     36 H42N         5.6450     2.4390     2.9770 hn         1 O92       0.467800
     37 H2           1.7370     0.4160     2.7300 h4         1 O92       0.035100
     38 H11         -0.0520    -0.0150     1.6290 ha         1 O92       0.164000
     39 H7           2.5060    -2.0770    -1.1150 ha         1 O92       0.150000
     40 H8           0.5950    -3.3820    -1.9130 ha         1 O92       0.152000
     41 H5          -4.3890    -1.0550    -0.1310 hn         1 O92       0.458800
     42 H17         -1.7330     0.2200    -1.9250 ha         1 O92       0.155000
     43 H18         -1.4210     2.5770    -2.6140 ha         1 O92       0.147000
     44 H15         -2.8480     4.3560    -1.6350 ha         1 O92       0.157000
@<TRIPOS>BOND
     1     1     2 1   
     2     1    31 1   
     3     1    32 1   
     4     1    33 1   
     5     2     3 1   
     6     2    34 1   
     7     3     4 2   
     8     3     5 1   
     9     5     6 ar  
    10     5     7 ar  
    11     6    11 ar  
    12     7     8 1   
    13     7     9 ar  
    14     8    35 1   
    15     8    36 1   
    16     9    10 ar  
    17    10    11 ar  
    18    10    37 1   
    19    11    12 1   
    20    12    13 ar  
    21    12    14 ar  
    22    13    18 ar  
    23    13    38 1   
    24    14    15 ar  
    25    14    39 1   
    26    15    16 ar  
    27    15    40 1   
    28    16    17 1   
    29    16    18 ar  
    30    18    19 1   
    31    19    20 2   
    32    19    21 2   
    33    19    22 1   
    34    22    23 1   
    35    22    41 1   
    36    23    24 ar  
    37    23    29 ar  
    38    24    25 ar  
    39    24    42 1   
    40    25    26 ar  
    41    25    43 1   
    42    26    27 ar  
    43    26    44 1   
    44    27    28 1   
    45    27    29 ar  
    46    29    30 1   
@<TRIPOS>SUBSTRUCTURE
     1 O92         1 TEMP              0 ****  ****    0 ROOT
