@<TRIPOS>MOLECULE
O92
   44    46     1     0     0
SMALL
No Charge or Current Charge


@<TRIPOS>ATOM
      1 C12          6.4670     0.2050    -3.2020 c3         1 O92       0.095300
      2 N3           5.5860     0.0980    -2.0370 ns         1 O92      -0.479900
      3 C6           5.8950     0.5460    -0.7690 c          1 O92       0.523600
      4 O1           6.9710     1.0910    -0.5390 o          1 O92      -0.643100
      5 C4           4.8100     0.3270     0.2760 ca         1 O92       0.160500
      6 N2           3.6050    -0.2140    -0.1140 nb         1 O92      -0.617000
      7 C3           5.0360     0.6980     1.6420 ca         1 O92       0.640900
      8 N4           6.1570     1.2180     2.1760 nv         1 O92      -1.051900
      9 N1           4.1230     0.5670     2.6090 nb         1 O92      -0.745000
     10 C2           2.9340     0.0340     2.2070 ca         1 O92       0.400900
     11 C1           2.6560    -0.3610     0.8520 cp         1 O92       0.259500
     12 C5           1.3390    -0.9560     0.4200 cp         1 O92      -0.131500
     13 C11          0.1530    -0.7650     1.1800 ca         1 O92      -0.010000
     14 C7           1.2360    -1.7240    -0.7690 ca         1 O92      -0.029000
     15 C8           0.0110    -2.2750    -1.1730 ca         1 O92      -0.131000
     16 C9          -1.1480    -2.0810    -0.4100 ca         1 O92       0.207000
     17 Cl1         -2.6480    -2.7890    -1.0150 cl         1 O92      -0.158000
     18 C10         -1.0820    -1.3230     0.7770 ca         1 O92      -0.266500
     19 S1          -2.5450    -1.0210     1.7780 sy         1 O92       1.166600
     20 O2          -3.2660    -2.2740     2.0070 o          1 O92      -0.528500
     21 O3          -2.2450    -0.0910     2.8690 o          1 O92      -0.528500
     22 N5          -3.6040    -0.1800     0.7840 nu         1 O92      -0.911100
     23 C14         -3.3520     0.9090    -0.0650 ca         1 O92       0.230000
     24 C17         -2.3380     1.8480     0.2220 ca         1 O92      -0.086000
     25 C18         -2.0910     2.9280    -0.6460 ca         1 O92      -0.094000
     26 C15         -2.8600     3.0840    -1.8110 ca         1 O92      -0.121000
     27 C16         -3.8750     2.1610    -2.1040 ca         1 O92       0.146000
     28 F2          -4.6120     2.3180    -3.2290 f          1 O92      -0.155000
     29 C13         -4.1240     1.0790    -1.2390 ca         1 O92       0.129000
     30 F1          -5.1050     0.1910    -1.5420 f          1 O92      -0.151000
     31 H121         6.6870     1.2610    -3.4020 h1         1 O92       0.042367
     32 H122         7.4040    -0.3330    -3.0080 h1         1 O92       0.042367
     33 H123         5.9720    -0.2340    -4.0770 h1         1 O92       0.042367
     34 H3           4.6710    -0.3290    -2.1420 hn         1 O92       0.340500
     35 H41N         6.8410     1.5810     1.5140 hn         1 O92       0.523000
     36 H42N         6.0400     1.7180     3.0490 hn         1 O92       0.523000
     37 H2           2.1900    -0.0950     2.9910 h4         1 O92       0.035100
     38 H11          0.1890    -0.1640     2.0860 ha         1 O92       0.146000
     39 H7           2.1140    -1.9020    -1.3860 ha         1 O92       0.132000
     40 H8          -0.0400    -2.8570    -2.0900 ha         1 O92       0.134000
     41 H5          -4.2590    -0.8770     0.4510 hn         1 O92       0.514000
     42 H17         -1.7360     1.7550     1.1200 ha         1 O92       0.137000
     43 H18         -1.3060     3.6440    -0.4130 ha         1 O92       0.129000
     44 H15         -2.6730     3.9170    -2.4850 ha         1 O92       0.139000
@<TRIPOS>BOND
     1     1     2 1   
     2     1    31 1   
     3     1    32 1   
     4     1    33 1   
     5     2     3 1   
     6     2    34 1   
     7     3     4 2   
     8     3     5 1   
     9     5     6 ar  
    10     5     7 ar  
    11     6    11 ar  
    12     7     8 1   
    13     7     9 ar  
    14     8    35 1   
    15     8    36 1   
    16     9    10 ar  
    17    10    11 ar  
    18    10    37 1   
    19    11    12 1   
    20    12    13 ar  
    21    12    14 ar  
    22    13    18 ar  
    23    13    38 1   
    24    14    15 ar  
    25    14    39 1   
    26    15    16 ar  
    27    15    40 1   
    28    16    17 1   
    29    16    18 ar  
    30    18    19 1   
    31    19    20 2   
    32    19    21 2   
    33    19    22 1   
    34    22    23 1   
    35    22    41 1   
    36    23    24 ar  
    37    23    29 ar  
    38    24    25 ar  
    39    24    42 1   
    40    25    26 ar  
    41    25    43 1   
    42    26    27 ar  
    43    26    44 1   
    44    27    28 1   
    45    27    29 ar  
    46    29    30 1   
@<TRIPOS>SUBSTRUCTURE
     1 O92         1 TEMP              0 ****  ****    0 ROOT
