@<TRIPOS>MOLECULE
O95
   45    48     1     0     0
SMALL
bcc


@<TRIPOS>ATOM
      1 N3           3.7070     2.7370    -0.3170 nu         1 O95      -0.480100
      2 O4           2.6360     3.5670    -0.6000 oh         1 O95      -0.410300
      3 C16          3.3580     1.3960    -0.2050 ca         1 O95       0.126600
      4 C1           4.3760     0.4350    -0.1950 ca         1 O95      -0.056300
      5 C20          5.7850     0.9390    -0.3540 c3         1 O95      -0.061800
      6 C2           4.0310    -0.9240    -0.0390 ca         1 O95      -0.172300
      7 C3           5.1000    -1.9800    -0.0610 c3         1 O95       0.722200
      8 F2           4.5970    -3.2160     0.0060 f          1 O95      -0.234300
      9 F1           5.8330    -1.9310    -1.1820 f          1 O95      -0.234300
     10 F            5.9510    -1.8630     0.9700 f          1 O95      -0.234300
     11 C4           2.7250    -1.3340     0.1420 ca         1 O95      -0.037000
     12 C5           1.7220    -0.3710     0.1550 ca         1 O95       0.092400
     13 C15          2.0350     0.9840    -0.0320 ca         1 O95      -0.074100
     14 N20          0.3930    -0.6420     0.3360 nc         1 O95      -0.472100
     15 C6          -0.2940     0.4450     0.2970 cd         1 O95       0.319900
     16 S1           0.5800     1.9180     0.0190 ss         1 O95       0.049900
     17 C7          -1.7450     0.4840     0.4650 cf         1 O95       0.565300
     18 O1          -2.2880     1.7030     0.3720 os         1 O95      -0.427400
     19 C14         -3.6810     1.5430     0.6830 c5         1 O95       0.104400
     20 C8          -3.8460     0.0040     0.7590 c5         1 O95      -0.005500
     21 N1          -2.4880    -0.5090     0.6980 n2         1 O95      -0.554900
     22 C9          -4.6400    -0.5220    -0.4350 c          1 O95       0.678100
     23 O20         -4.0770    -0.7720    -1.4920 o          1 O95      -0.575100
     24 N2          -5.9610    -0.6410    -0.2670 n          1 O95      -0.486800
     25 C13         -6.8230    -1.1240    -1.3420 c5         1 O95       0.102000
     26 C12         -8.1580    -1.3540    -0.6450 c5         1 O95      -0.094400
     27 C11         -8.1610    -0.2960     0.4530 c5         1 O95      -0.094400
     28 C10         -6.7170    -0.2990     0.9390 c5         1 O95       0.102000
     29 H1           4.4350     2.9140    -0.9990 hn         1 O95       0.406800
     30 H2           2.6210     4.2050     0.1230 ho         1 O95       0.429000
     31 H3           5.9590     1.7890     0.3070 hc         1 O95       0.055033
     32 H4           6.5520     0.2090    -0.1250 hc         1 O95       0.055033
     33 H5           5.9690     1.2820    -1.3760 hc         1 O95       0.055033
     34 H6           2.4540    -2.3710     0.2770 ha         1 O95       0.175000
     35 H8          -3.8900     2.0300     1.6350 h1         1 O95       0.070700
     36 H9          -4.2700     2.0230    -0.0980 h1         1 O95       0.070700
     37 H10         -4.3040    -0.2980     1.7020 h1         1 O95       0.093700
     38 H13         -6.9100    -0.3690    -2.1290 h1         1 O95       0.051700
     39 H14         -6.4160    -2.0300    -1.7910 h1         1 O95       0.051700
     40 H15         -9.0000    -1.2680    -1.3300 hc         1 O95       0.056200
     41 H16         -8.1850    -2.3540    -0.2060 hc         1 O95       0.056200
     42 H17         -8.4110     0.6820     0.0360 hc         1 O95       0.056200
     43 H18         -8.8630    -0.5050     1.2590 hc         1 O95       0.056200
     44 H19         -6.5650    -1.0510     1.7190 h1         1 O95       0.051700
     45 H20         -6.4210     0.6700     1.3430 h1         1 O95       0.051700
@<TRIPOS>BOND
     1     1     2 1   
     2     1     3 1   
     3     1    29 1   
     4     2    30 1   
     5     3     4 ar  
     6     3    13 ar  
     7     4     5 1   
     8     4     6 ar  
     9     5    31 1   
    10     5    32 1   
    11     5    33 1   
    12     6     7 1   
    13     6    11 ar  
    14     7     8 1   
    15     7     9 1   
    16     7    10 1   
    17    11    12 ar  
    18    11    34 1   
    19    12    13 ar  
    20    12    14 1   
    21    13    16 1   
    22    14    15 2   
    23    15    16 1   
    24    15    17 1   
    25    17    18 1   
    26    17    21 2   
    27    18    19 1   
    28    19    20 1   
    29    19    35 1   
    30    19    36 1   
    31    20    21 1   
    32    20    22 1   
    33    20    37 1   
    34    22    23 2   
    35    22    24 1   
    36    24    25 1   
    37    24    28 1   
    38    25    26 1   
    39    25    38 1   
    40    25    39 1   
    41    26    27 1   
    42    26    40 1   
    43    26    41 1   
    44    27    28 1   
    45    27    42 1   
    46    27    43 1   
    47    28    44 1   
    48    28    45 1   
@<TRIPOS>SUBSTRUCTURE
     1 O95         1 TEMP              0 ****  ****    0 ROOT
