@<TRIPOS>MOLECULE
O95
   45    48     1     0     0
SMALL
No Charge or Current Charge


@<TRIPOS>ATOM
      1 N3           3.4420     2.7980    -0.4930 nu         1 O95      -0.673700
      2 O4           2.6470     3.3420    -1.5950 oh         1 O95      -0.449300
      3 C16          3.2690     1.4220    -0.2260 ca         1 O95       0.265000
      4 C1           4.3870     0.5370    -0.2010 ca         1 O95      -0.056300
      5 C20          5.7970     1.1030    -0.4530 c3         1 O95      -0.061800
      6 C2           4.1770    -0.8610     0.0330 ca         1 O95      -0.172300
      7 C3           5.3300    -1.8870     0.0210 c3         1 O95       0.358300
      8 F2           4.8990    -3.1690     0.0740 f          1 O95      -0.113000
      9 F1           6.0820    -1.7960    -1.1000 f          1 O95      -0.113000
     10 F            6.1580    -1.7230     1.0780 f          1 O95      -0.113000
     11 C4           2.8610    -1.3210     0.2890 ca         1 O95      -0.019000
     12 C5           1.7780    -0.4350     0.3000 ca         1 O95       0.092400
     13 C15          1.9880     0.9030     0.0420 ca         1 O95      -0.201000
     14 N20          0.4740    -0.8430     0.5630 nc         1 O95      -0.472100
     15 C6          -0.3030     0.2610     0.5020 cd         1 O95       0.319900
     16 S1           0.4850     1.8140     0.1390 ss         1 O95       0.176800
     17 C7          -1.7710     0.2190     0.7280 cf         1 O95       0.565300
     18 O1          -2.4380     1.4050     0.6450 os         1 O95      -0.450600
     19 C14         -3.7500     1.0980     1.1510 c5         1 O95       0.127600
     20 C8          -3.8530    -0.4460     0.9690 c5         1 O95      -0.005500
     21 N1          -2.4160    -0.8800     0.9860 n2         1 O95      -0.554900
     22 C9          -4.5810    -0.7450    -0.3920 c          1 O95       0.611100
     23 O20         -4.0310    -1.0810    -1.4360 o          1 O95      -0.575100
     24 N2          -5.9870    -0.5690    -0.3250 n          1 O95      -0.419800
     25 C13         -6.8470    -0.7670    -1.5140 c5         1 O95       0.102000
     26 C12         -8.2510    -0.9340    -0.8780 c5         1 O95      -0.094400
     27 C11         -8.1630     0.0170     0.3380 c5         1 O95      -0.094400
     28 C10         -6.7730    -0.3480     0.9150 c5         1 O95       0.102000
     29 H1           4.4250     3.0710    -0.6180 hn         1 O95       0.462000
     30 H2           2.4130     4.2740    -1.3550 ho         1 O95       0.468000
     31 H3           5.9310     2.0900     0.0050 hc         1 O95       0.055033
     32 H4           6.5940     0.4860    -0.0300 hc         1 O95       0.055033
     33 H5           5.9900     1.2020    -1.5280 hc         1 O95       0.055033
     34 H6           2.6600    -2.3710     0.4880 ha         1 O95       0.157000
     35 H8          -3.7900     1.3730     2.2150 h1         1 O95       0.070700
     36 H9          -4.5150     1.6700     0.6080 h1         1 O95       0.070700
     37 H10         -4.4070    -0.9230     1.7870 h1         1 O95       0.093700
     38 H13         -6.8040     0.1140    -2.1680 h1         1 O95       0.051700
     39 H14         -6.5590    -1.6500    -2.1000 h1         1 O95       0.051700
     40 H15         -9.0590    -0.6700    -1.5710 hc         1 O95       0.056200
     41 H16         -8.4180    -1.9700    -0.5590 hc         1 O95       0.056200
     42 H17         -8.1970     1.0680     0.0240 hc         1 O95       0.056200
     43 H18         -8.9710    -0.1380     1.0610 hc         1 O95       0.056200
     44 H19         -6.8160    -1.2680     1.5150 h1         1 O95       0.051700
     45 H20         -6.3800     0.4620     1.5410 h1         1 O95       0.051700
@<TRIPOS>BOND
     1     1     2 1   
     2     1     3 1   
     3     1    29 1   
     4     2    30 1   
     5     3     4 ar  
     6     3    13 ar  
     7     4     5 1   
     8     4     6 ar  
     9     5    31 1   
    10     5    32 1   
    11     5    33 1   
    12     6     7 1   
    13     6    11 ar  
    14     7     8 1   
    15     7     9 1   
    16     7    10 1   
    17    11    12 ar  
    18    11    34 1   
    19    12    13 ar  
    20    12    14 1   
    21    13    16 1   
    22    14    15 2   
    23    15    16 1   
    24    15    17 1   
    25    17    18 1   
    26    17    21 2   
    27    18    19 1   
    28    19    20 1   
    29    19    35 1   
    30    19    36 1   
    31    20    21 1   
    32    20    22 1   
    33    20    37 1   
    34    22    23 2   
    35    22    24 1   
    36    24    25 1   
    37    24    28 1   
    38    25    26 1   
    39    25    38 1   
    40    25    39 1   
    41    26    27 1   
    42    26    40 1   
    43    26    41 1   
    44    27    28 1   
    45    27    42 1   
    46    27    43 1   
    47    28    44 1   
    48    28    45 1   
@<TRIPOS>SUBSTRUCTURE
     1 O95         1 TEMP              0 ****  ****    0 ROOT
