@<TRIPOS>MOLECULE
O96
   47    48     1     0     0
SMALL
abcg2


@<TRIPOS>ATOM
      1 N1           6.9800     2.2720     1.3020 nt         1 O96      -0.583000
      2 C4           6.5540     1.1650     0.7010 c          1 O96       0.511100
      3 C5           5.0890     1.2300     0.2360 c          1 O96       0.483100
      4 C6           4.5990     0.0640    -0.6020 c3         1 O96       0.026700
      5 N8           3.1620     0.0130    -0.5830 ns         1 O96      -0.493900
      6 C10          2.4860    -0.3120     0.5310 c          1 O96       0.625700
      7 C11          1.0060    -0.1120     0.4330 ca         1 O96      -0.196600
      8 C12          0.5140     1.1520     0.1410 ca         1 O96      -0.012000
      9 C14         -0.8410     1.4040     0.1030 ca         1 O96      -0.224000
     10 C16         -1.7550     0.3810     0.3510 ca         1 O96       0.229100
     11 C17         -1.2860    -0.9120     0.6610 ca         1 O96      -0.246300
     12 C18          0.0940    -1.1270     0.6880 ca         1 O96       0.235000
     13 CL19         0.7280    -2.7080     0.9820 cl         1 O96      -0.140000
     14 C20         -2.2040    -2.0740     0.9560 c3         1 O96       0.375300
     15 F21         -1.9160    -2.6260     2.1430 f          1 O96      -0.107000
     16 F22         -3.4950    -1.7630     1.0040 f          1 O96      -0.107000
     17 F23         -2.0800    -3.0370     0.0310 f          1 O96      -0.107000
     18 O24         -3.0730     0.5810     0.3050 os         1 O96      -0.330100
     19 C25         -3.5760     1.8440    -0.0880 c3         1 O96       0.114300
     20 C28         -5.0740     1.7640    -0.1840 ca         1 O96       0.334300
     21 N29         -5.6950     2.9320    -0.0570 nb         1 O96      -0.676000
     22 C30         -7.0160     2.9630    -0.1740 ca         1 O96       0.340900
     23 C32         -7.7860     1.8350    -0.4140 ca         1 O96      -0.156000
     24 C34         -7.1340     0.6190    -0.5460 ca         1 O96      -0.074000
     25 C36         -5.7530     0.5770    -0.4340 ca         1 O96      -0.127000
     26 O38          3.0260    -0.7030     1.5500 o          1 O96      -0.568100
     27 C39          5.1040     0.2140    -2.0430 c3         1 O96      -0.081400
     28 C42          4.7710    -0.9960    -2.9050 c3         1 O96      -0.089100
     29 O46          4.3950     2.1690     0.5240 o          1 O96      -0.503100
     30 O47          7.2100     0.1550     0.5120 o          1 O96      -0.583100
     31 HN1          7.9170     2.3270     1.6680 hn         1 O96       0.328000
     32 HN1A         6.3740     3.0650     1.4370 hn         1 O96       0.328000
     33 H6           5.0060    -0.8630    -0.1890 h1         1 O96       0.116700
     34 HN8          2.6570     0.3670    -1.3800 hn         1 O96       0.323500
     35 H12          1.2040     1.9660    -0.0450 ha         1 O96       0.132000
     36 H14         -1.1740     2.4060    -0.1190 ha         1 O96       0.133000
     37 H25         -3.3040     2.6190     0.6330 h1         1 O96       0.062200
     38 H25A        -3.1660     2.1340    -1.0630 h1         1 O96       0.062200
     39 H30         -7.4860     3.9340    -0.0650 h4         1 O96       0.022100
     40 H32         -8.8610     1.9130    -0.4920 ha         1 O96       0.127000
     41 H34         -7.6920    -0.2880    -0.7370 ha         1 O96       0.124000
     42 H36         -5.2240    -0.3590    -0.5410 ha         1 O96       0.143000
     43 H39          4.6790     1.1220    -2.4800 hc         1 O96       0.054200
     44 H39A         6.1850     0.3560    -2.0250 hc         1 O96       0.054200
     45 H42          5.2010    -1.9050    -2.4850 hc         1 O96       0.041033
     46 H42A         3.6960    -1.1490    -3.0020 hc         1 O96       0.041033
     47 H42B         5.1750    -0.8660    -3.9080 hc         1 O96       0.041033
@<TRIPOS>BOND
     1     1     2 1   
     2     1    31 1   
     3     1    32 1   
     4     2     3 1   
     5     2    30 2   
     6     3     4 1   
     7     3    29 2   
     8     4     5 1   
     9     4    27 1   
    10     4    33 1   
    11     5     6 1   
    12     5    34 1   
    13     6     7 1   
    14     6    26 2   
    15     7     8 ar  
    16     7    12 ar  
    17     8     9 ar  
    18     8    35 1   
    19     9    10 ar  
    20     9    36 1   
    21    10    11 ar  
    22    10    18 1   
    23    11    12 ar  
    24    11    14 1   
    25    12    13 1   
    26    14    15 1   
    27    14    16 1   
    28    14    17 1   
    29    18    19 1   
    30    19    20 1   
    31    19    37 1   
    32    19    38 1   
    33    20    21 ar  
    34    20    25 ar  
    35    21    22 ar  
    36    22    23 ar  
    37    22    39 1   
    38    23    24 ar  
    39    23    40 1   
    40    24    25 ar  
    41    24    41 1   
    42    25    42 1   
    43    27    28 1   
    44    27    43 1   
    45    27    44 1   
    46    28    45 1   
    47    28    46 1   
    48    28    47 1   
@<TRIPOS>SUBSTRUCTURE
     1 O96         1 TEMP              0 ****  ****    0 ROOT
