@<TRIPOS>MOLECULE
O96
   47    48     1     0     0
SMALL
No Charge or Current Charge


@<TRIPOS>ATOM
      1 N1           7.3300     3.1520     0.3220 nt         1 O96      -0.583000
      2 C4           6.8100     1.8920     0.3250 c          1 O96       0.511100
      3 C5           5.3020     1.7580    -0.1950 c          1 O96       0.483100
      4 C6           4.7260     0.3170    -0.2920 c3         1 O96       0.026700
      5 N8           3.2440     0.3540    -0.2430 ns         1 O96      -0.493900
      6 C10          2.4450    -0.5560     0.4170 c          1 O96       0.625700
      7 C11          0.9640    -0.2920     0.3260 ca         1 O96      -0.196600
      8 C12          0.5100     1.0400     0.3190 ca         1 O96      -0.012000
      9 C14         -0.8560     1.3210     0.2530 ca         1 O96      -0.224000
     10 C16         -1.8080     0.2850     0.1960 ca         1 O96       0.229100
     11 C17         -1.3810    -1.0710     0.2010 ca         1 O96      -0.246300
     12 C18          0.0170    -1.3440     0.2590 ca         1 O96       0.235000
     13 Cl19         0.5940    -3.0210     0.1580 cl         1 O96      -0.140000
     14 C20         -2.3780    -2.2560     0.1290 c3         1 O96       0.375300
     15 F21         -2.2140    -3.1050     1.1690 f          1 O96      -0.107000
     16 F22         -3.6870    -1.9190     0.1490 f          1 O96      -0.107000
     17 F23         -2.2060    -2.9760    -1.0030 f          1 O96      -0.107000
     18 O24         -3.1540     0.5850     0.1260 os         1 O96      -0.330100
     19 C25         -3.6690     1.9320     0.0850 c3         1 O96       0.114300
     20 C28         -5.1940     1.8960    -0.0110 ca         1 O96       0.334300
     21 N29         -5.8890     2.6250     0.9010 nb         1 O96      -0.676000
     22 C30         -7.2420     2.6100     0.8320 ca         1 O96       0.340900
     23 C32         -7.9490     1.8800    -0.1390 ca         1 O96      -0.156000
     24 C34         -7.2340     1.1290    -1.0860 ca         1 O96      -0.074000
     25 C36         -5.8310     1.1410    -1.0170 ca         1 O96      -0.127000
     26 O38          2.9290    -1.4540     1.0900 o          1 O96      -0.568100
     27 C39          5.2450    -0.4190    -1.5570 c3         1 O96      -0.081400
     28 C42          4.8090    -1.8970    -1.6640 c3         1 O96      -0.089100
     29 O46          4.6320     2.7510    -0.4880 o          1 O96      -0.503100
     30 O47          7.4870     0.9470     0.7110 o          1 O96      -0.583100
     31 HN1          8.2760     3.3020     0.6410 hn         1 O96       0.328000
     32 HN1A         6.7650     3.9290     0.0070 hn         1 O96       0.328000
     33 H6           5.0970    -0.2170     0.5950 h1         1 O96       0.116700
     34 HN8          2.7670     1.0790    -0.7670 hn         1 O96       0.323500
     35 H12          1.2100     1.8710     0.3910 ha         1 O96       0.132000
     36 H14         -1.1560     2.3650     0.2560 ha         1 O96       0.133000
     37 H25         -3.3730     2.4840     0.9860 h1         1 O96       0.062200
     38 H25A        -3.2780     2.4680    -0.7900 h1         1 O96       0.062200
     39 H30         -7.7730     3.2010     1.5760 h4         1 O96       0.022100
     40 H32         -9.0350     1.9020    -0.1510 ha         1 O96       0.127000
     41 H34         -7.7520     0.5530    -1.8510 ha         1 O96       0.124000
     42 H36         -5.2400     0.5730    -1.7300 ha         1 O96       0.143000
     43 H39          4.9080     0.1170    -2.4530 hc         1 O96       0.054200
     44 H39A         6.3420    -0.3850    -1.5680 hc         1 O96       0.054200
     45 H42          5.1130    -2.4580    -0.7720 hc         1 O96       0.041033
     46 H42A         3.7210    -1.9810    -1.7740 hc         1 O96       0.041033
     47 H42B         5.2730    -2.3680    -2.5390 hc         1 O96       0.041033
@<TRIPOS>BOND
     1     1     2 1   
     2     1    31 1   
     3     1    32 1   
     4     2     3 1   
     5     2    30 2   
     6     3     4 1   
     7     3    29 2   
     8     4     5 1   
     9     4    27 1   
    10     4    33 1   
    11     5     6 1   
    12     5    34 1   
    13     6     7 1   
    14     6    26 2   
    15     7     8 ar  
    16     7    12 ar  
    17     8     9 ar  
    18     8    35 1   
    19     9    10 ar  
    20     9    36 1   
    21    10    11 ar  
    22    10    18 1   
    23    11    12 ar  
    24    11    14 1   
    25    12    13 1   
    26    14    15 1   
    27    14    16 1   
    28    14    17 1   
    29    18    19 1   
    30    19    20 1   
    31    19    37 1   
    32    19    38 1   
    33    20    21 ar  
    34    20    25 ar  
    35    21    22 ar  
    36    22    23 ar  
    37    22    39 1   
    38    23    24 ar  
    39    23    40 1   
    40    24    25 ar  
    41    24    41 1   
    42    25    42 1   
    43    27    28 1   
    44    27    43 1   
    45    27    44 1   
    46    28    45 1   
    47    28    46 1   
    48    28    47 1   
@<TRIPOS>SUBSTRUCTURE
     1 O96         1 TEMP              0 ****  ****    0 ROOT
