@<TRIPOS>MOLECULE
O97
   37    40     1     0     0
SMALL
abcg2


@<TRIPOS>ATOM
      1 C4          91.5130    84.2880    -2.7470 cc         1 O97      -0.130000
      2 C14         89.1510    85.7910    -4.0660 cc         1 O97      -0.140200
      3 C5          90.5490    83.8870    -1.8490 cd         1 O97      -0.142000
      4 C6          91.0380    83.7390    -0.5340 cd         1 O97      -0.063000
      5 C11         90.1850    85.3710    -6.1350 ca         1 O97      -0.174000
      6 C7          91.3920    84.5240    -4.1870 ca         1 O97       0.021000
      7 C8          92.3820    84.0880    -5.0620 ca         1 O97      -0.104000
      8 C9          92.2790    84.2800    -6.4450 ca         1 O97      -0.094000
      9 C10         91.1810    84.9140    -6.9980 ca         1 O97      -0.073000
     10 C12         90.2680    85.1950    -4.7310 ca         1 O97      -0.063800
     11 C13         88.2610    86.3650    -4.9220 cd         1 O97      -0.132600
     12 N1          94.4900    84.0750     0.7490 ns         1 O97      -0.482900
     13 N2          86.5530    87.0740    -3.3760 nt         1 O97      -0.596000
     14 C3          92.3750    84.0280    -0.4150 cc         1 O97      -0.280600
     15 C1          95.3490    84.0160     1.8940 cx         1 O97       0.049700
     16 C2          93.1450    83.9640     0.8460 c          1 O97       0.639700
     17 O1          92.5690    83.8200     1.9270 o          1 O97      -0.590100
     18 S1          93.0350    84.4980    -1.9470 ss         1 O97       0.204000
     19 S2          88.7450    86.2280    -6.5920 ss         1 O97       0.165400
     20 C15         86.9970    87.0840    -4.6460 c          1 O97       0.633300
     21 O2          86.3960    87.6590    -5.5580 o          1 O97      -0.606100
     22 C16         95.5290    85.2470     2.7370 cx         1 O97      -0.133400
     23 C17         96.6360    84.7770     1.8300 cx         1 O97      -0.133400
     24 H2          89.0400    85.8040    -2.9920 ha         1 O97       0.204000
     25 H3          89.5300    83.6750    -2.1370 ha         1 O97       0.141000
     26 H5          90.4400    83.4200     0.3070 ha         1 O97       0.156000
     27 H7          93.2410    83.5630    -4.6670 ha         1 O97       0.119000
     28 H8          93.0680    83.9150    -7.0900 ha         1 O97       0.119000
     29 H9          91.0970    85.0560    -8.0670 ha         1 O97       0.127000
     30 H10         94.9240    84.0540    -0.1610 hn         1 O97       0.316500
     31 H11         85.6920    87.5510    -3.1590 hn         1 O97       0.319500
     32 H12         87.0060    86.5540    -2.6440 hn         1 O97       0.319500
     33 H14         95.3520    83.0610     2.4070 h1         1 O97       0.090700
     34 H15         95.6390    85.1110     3.8050 hc         1 O97       0.078450
     35 H16         94.9780    86.1280     2.4370 hc         1 O97       0.078450
     36 H17         97.5110    84.3200     2.2710 hc         1 O97       0.078450
     37 H18         96.8240    85.3530     0.9330 hc         1 O97       0.078450
@<TRIPOS>BOND
     1     1     3 2   
     2     1     6 1   
     3     1    18 1   
     4     2    10 1   
     5     2    11 2   
     6     2    24 1   
     7     3     4 1   
     8     3    25 1   
     9     4    14 2   
    10     4    26 1   
    11     5     9 ar  
    12     5    10 ar  
    13     5    19 1   
    14     6     7 ar  
    15     6    10 ar  
    16     7     8 ar  
    17     7    27 1   
    18     8     9 ar  
    19     8    28 1   
    20     9    29 1   
    21    11    19 1   
    22    11    20 1   
    23    12    15 1   
    24    12    16 1   
    25    12    30 1   
    26    13    20 1   
    27    13    31 1   
    28    13    32 1   
    29    14    16 1   
    30    14    18 1   
    31    15    22 1   
    32    15    23 1   
    33    15    33 1   
    34    16    17 2   
    35    20    21 2   
    36    22    23 1   
    37    22    34 1   
    38    22    35 1   
    39    23    36 1   
    40    23    37 1   
@<TRIPOS>SUBSTRUCTURE
     1 O97         1 TEMP              0 ****  ****    0 ROOT
