@<TRIPOS>MOLECULE
O97
   37    40     1     0     0
SMALL
No Charge or Current Charge


@<TRIPOS>ATOM
      1 C4          91.6190    84.1890    -2.8620 cc         1 O97      -0.130000
      2 C14         89.2850    85.8000    -4.0140 cc         1 O97      -0.140200
      3 C5          90.6460    83.6000    -2.0940 cd         1 O97      -0.142000
      4 C6          91.0610    83.3960    -0.7490 cd         1 O97      -0.063000
      5 C11         90.1630    85.3520    -6.1510 ca         1 O97      -0.174000
      6 C7          91.4250    84.4240    -4.2910 ca         1 O97       0.021000
      7 C8          92.3640    83.9170    -5.2150 ca         1 O97      -0.104000
      8 C9          92.1950    84.1230    -6.6000 ca         1 O97      -0.094000
      9 C10         91.0840    84.8430    -7.0780 ca         1 O97      -0.073000
     10 C12         90.3250    85.1550    -4.7910 ca         1 O97      -0.063800
     11 C13         88.3590    86.4510    -4.8250 cd         1 O97      -0.132600
     12 N1          94.3140    84.1830     0.8090 ns         1 O97      -0.482900
     13 N2          87.0050    87.2880    -3.0060 nt         1 O97      -0.596000
     14 C3          92.3540    83.8090    -0.5100 cc         1 O97      -0.280600
     15 C1          95.1670    84.2040     1.9660 cx         1 O97       0.049700
     16 C2          93.0200    83.7150     0.8040 c          1 O97       0.639700
     17 O1          92.4830    83.2650     1.8060 o          1 O97      -0.590100
     18 S1          93.1100    84.4520    -1.9690 ss         1 O97       0.204000
     19 S2          88.7160    86.2940    -6.5680 ss         1 O97       0.165400
     20 C15         87.1850    87.2260    -4.3440 c          1 O97       0.633300
     21 O2          86.3970    87.7920    -5.0830 o          1 O97      -0.606100
     22 C16         95.3130    85.5110     2.7040 cx         1 O97      -0.133400
     23 C17         96.4550    84.9830     1.8710 cx         1 O97      -0.133400
     24 H2          89.2510    85.7980    -2.9280 ha         1 O97       0.204000
     25 H3          89.6680    83.3150    -2.4690 ha         1 O97       0.141000
     26 H5          90.4220    82.9530     0.0100 ha         1 O97       0.156000
     27 H7          93.2220    83.3530    -4.8600 ha         1 O97       0.119000
     28 H8          92.9230    83.7220    -7.3010 ha         1 O97       0.119000
     29 H9          90.9480    85.0050    -8.1450 ha         1 O97       0.127000
     30 H10         94.6680    84.5310    -0.0720 hn         1 O97       0.316500
     31 H11         86.2190    87.8040    -2.6420 hn         1 O97       0.319500
     32 H12         87.6460    86.8250    -2.3820 hn         1 O97       0.319500
     33 H14         95.1670    83.2790     2.5460 h1         1 O97       0.090700
     34 H15         95.4120    85.4690     3.7860 hc         1 O97       0.078450
     35 H16         94.7660    86.3730     2.3300 hc         1 O97       0.078450
     36 H17         97.3230    84.5870     2.3920 hc         1 O97       0.078450
     37 H18         96.6800    85.4950     0.9380 hc         1 O97       0.078450
@<TRIPOS>BOND
     1     1     3 2   
     2     1     6 1   
     3     1    18 1   
     4     2    10 1   
     5     2    11 2   
     6     2    24 1   
     7     3     4 1   
     8     3    25 1   
     9     4    14 2   
    10     4    26 1   
    11     5     9 ar  
    12     5    10 ar  
    13     5    19 1   
    14     6     7 ar  
    15     6    10 ar  
    16     7     8 ar  
    17     7    27 1   
    18     8     9 ar  
    19     8    28 1   
    20     9    29 1   
    21    11    19 1   
    22    11    20 1   
    23    12    15 1   
    24    12    16 1   
    25    12    30 1   
    26    13    20 1   
    27    13    31 1   
    28    13    32 1   
    29    14    16 1   
    30    14    18 1   
    31    15    22 1   
    32    15    23 1   
    33    15    33 1   
    34    16    17 2   
    35    20    21 2   
    36    22    23 1   
    37    22    34 1   
    38    22    35 1   
    39    23    36 1   
    40    23    37 1   
@<TRIPOS>SUBSTRUCTURE
     1 O97         1 TEMP              0 ****  ****    0 ROOT
