@<TRIPOS>MOLECULE
O98
   86    89     1     0     0
SMALL
abcg2


@<TRIPOS>ATOM
      1 C4          -9.2200     1.7270    -0.7880 ca         1 O98      -0.106500
      2 C5         -10.5080     2.1090    -1.1300 ca         1 O98      -0.102500
      3 C6          -5.3910     0.2890    -0.5320 cc         1 O98       0.302900
      4 N1          -6.4550     0.8730    -1.0090 nd         1 O98      -0.514800
      5 C7          -7.0800    -1.0420    -0.0020 cd         1 O98       0.329000
      6 C8          -5.6940    -0.9280     0.1210 cc         1 O98      -0.371600
      7 N2          -3.5380    -1.5480     0.9290 ns         1 O98      -0.500900
      8 C9          -4.8450    -1.8680     0.8400 c          1 O98       0.664700
      9 C10         -2.5840    -2.3370     1.6790 c3         1 O98       0.148300
     10 C11         -1.1900    -2.0640     1.1830 ca         1 O98      -0.092300
     11 C12         -0.8120    -2.4530    -0.1010 ca         1 O98      -0.107000
     12 N3           3.4220    -0.2210     0.1660 ns         1 O98      -0.487900
     13 C13          0.4630    -2.1960    -0.5690 ca         1 O98      -0.074000
     14 C14          1.3870    -1.5210     0.2290 ca         1 O98      -0.138600
     15 C15          1.0150    -1.1400     1.5140 ca         1 O98      -0.074000
     16 N4           6.7160    -1.2410    -0.7230 ns         1 O98      -0.495900
     17 O2          -5.2990    -2.8990     1.3390 o          1 O98      -0.652100
     18 N5          -7.9150    -2.0200     0.4180 nv         1 O98      -1.068000
     19 N           -7.4870     0.0480    -0.6920 na         1 O98       0.169000
     20 C3          -8.8050     0.4220    -1.0300 ca         1 O98       0.007800
     21 C2          -9.6690    -0.4960    -1.6140 ca         1 O98      -0.106500
     22 C1         -10.9630    -0.1070    -1.9370 ca         1 O98      -0.102500
     23 C          -11.3850     1.1930    -1.6980 ca         1 O98      -0.107000
     24 C16         -0.2630    -1.4110     1.9840 ca         1 O98      -0.107000
     25 C17          2.7480    -1.2690    -0.3330 c          1 O98       0.617700
     26 O1           3.2100    -1.9720    -1.2220 o          1 O98      -0.606100
     27 C18          4.7610     0.0880    -0.2650 c3         1 O98       0.037700
     28 C19          5.7240    -1.0260     0.1510 c          1 O98       0.596100
     29 O            5.6040    -1.6000     1.2220 o          1 O98      -0.600100
     30 C20          7.8090    -2.1810    -0.5530 c3         1 O98       0.108700
     31 C23          7.6450    -3.3710    -1.5000 c3         1 O98      -0.089400
     32 C24          6.3750    -4.1730    -1.2600 c3         1 O98      -0.089600
     33 C21          9.1470    -1.4730    -0.7590 c3         1 O98      -0.089400
     34 C22          9.3910    -0.3380     0.2250 c3         1 O98      -0.089600
     35 C25          5.2190     1.4120     0.3490 c3         1 O98      -0.089400
     36 C26          4.4150     2.6090    -0.1470 c3         1 O98      -0.073400
     37 C27          4.9310     3.9580     0.3500 c6         1 O98      -0.060700
     38 C32          4.8520     4.0960     1.8710 c6         1 O98      -0.071400
     39 C31          5.3190     5.4700     2.3440 c6         1 O98      -0.072900
     40 C30          4.5470     6.5930     1.6610 c6         1 O98      -0.074400
     41 C29          4.6330     6.4710     0.1440 c6         1 O98      -0.072900
     42 C28          4.1650     5.0980    -0.3250 c6         1 O98      -0.071400
     43 H1          -8.5390     2.4360    -0.3370 ha         1 O98       0.135500
     44 H2         -10.8280     3.1250    -0.9430 ha         1 O98       0.120000
     45 H3          -4.4250     0.7500    -0.6750 h4         1 O98       0.034100
     46 H4          -3.2310    -0.6430     0.6100 hn         1 O98       0.314500
     47 H5          -2.6500    -2.1220     2.7490 h1         1 O98       0.060700
     48 H6          -2.8230    -3.3930     1.5490 h1         1 O98       0.060700
     49 H7          -1.5210    -2.9680    -0.7370 ha         1 O98       0.122000
     50 H8           3.0040     0.3560     0.8770 hn         1 O98       0.325500
     51 H9           0.7420    -2.5150    -1.5640 ha         1 O98       0.126500
     52 H10          1.7140    -0.6470     2.1780 ha         1 O98       0.126500
     53 H11          6.6830    -0.7450    -1.6010 hn         1 O98       0.307500
     54 H12         -8.8660    -1.7650     0.6380 hn         1 O98       0.490000
     55 H13         -7.4960    -2.6630     1.0720 hn         1 O98       0.490000
     56 H14         -9.3380    -1.5030    -1.8310 ha         1 O98       0.135500
     57 H15        -11.6350    -0.8240    -2.3890 ha         1 O98       0.120000
     58 H16        -12.3910     1.4930    -1.9590 ha         1 O98       0.118000
     59 H17         -0.5340    -1.1080     2.9880 ha         1 O98       0.122000
     60 H18          4.7720     0.1920    -1.3550 h1         1 O98       0.066700
     61 H19          7.7590    -2.5420     0.4770 h1         1 O98       0.082700
     62 H20          7.6700    -3.0070    -2.5330 hc         1 O98       0.039700
     63 H21          8.5180    -4.0190    -1.3860 hc         1 O98       0.039700
     64 H22          5.4820    -3.5570    -1.3740 hc         1 O98       0.038367
     65 H23          6.2980    -5.0000    -1.9650 hc         1 O98       0.038367
     66 H24          6.3600    -4.5940    -0.2530 hc         1 O98       0.038367
     67 H25          9.9410    -2.2180    -0.6650 hc         1 O98       0.039700
     68 H26          9.2030    -1.0990    -1.7870 hc         1 O98       0.039700
     69 H27          8.6430     0.4490     0.1250 hc         1 O98       0.038367
     70 H28          9.3580    -0.6990     1.2550 hc         1 O98       0.038367
     71 H29         10.3700     0.1150     0.0640 hc         1 O98       0.038367
     72 H30          5.1750     1.3300     1.4390 hc         1 O98       0.058200
     73 H31          6.2720     1.5560     0.0920 hc         1 O98       0.058200
     74 H32          4.4320     2.6070    -1.2430 hc         1 O98       0.041200
     75 H33          3.3620     2.5090     0.1380 hc         1 O98       0.041200
     76 H34          5.9870     4.0460     0.0580 hc         1 O98       0.046700
     77 H35          3.8150     3.9320     2.1890 hc         1 O98       0.038200
     78 H36          5.4500     3.3210     2.3570 hc         1 O98       0.038200
     79 H37          5.2170     5.5440     3.4300 hc         1 O98       0.039200
     80 H38          6.3870     5.5800     2.1260 hc         1 O98       0.039200
     81 H39          3.4950     6.5470     1.9670 hc         1 O98       0.039200
     82 H40          4.9230     7.5660     1.9880 hc         1 O98       0.039200
     83 H41          4.0410     7.2540    -0.3350 hc         1 O98       0.039200
     84 H42          5.6700     6.6300    -0.1730 hc         1 O98       0.039200
     85 H43          4.2660     5.0150    -1.4110 hc         1 O98       0.038200
     86 H44          3.0960     4.9860    -0.1060 hc         1 O98       0.038200
@<TRIPOS>BOND
     1     1     2 ar  
     2     1    20 ar  
     3     1    43 1   
     4     2    23 ar  
     5     2    44 1   
     6     3     4 2   
     7     3     6 1   
     8     3    45 1   
     9     4    19 1   
    10     5     6 2   
    11     5    18 1   
    12     5    19 1   
    13     6     8 1   
    14     7     8 1   
    15     7     9 1   
    16     7    46 1   
    17     8    17 2   
    18     9    10 1   
    19     9    47 1   
    20     9    48 1   
    21    10    11 ar  
    22    10    24 ar  
    23    11    13 ar  
    24    11    49 1   
    25    12    25 1   
    26    12    27 1   
    27    12    50 1   
    28    13    14 ar  
    29    13    51 1   
    30    14    15 ar  
    31    14    25 1   
    32    15    24 ar  
    33    15    52 1   
    34    16    28 1   
    35    16    30 1   
    36    16    53 1   
    37    18    54 1   
    38    18    55 1   
    39    19    20 1   
    40    20    21 ar  
    41    21    22 ar  
    42    21    56 1   
    43    22    23 ar  
    44    22    57 1   
    45    23    58 1   
    46    24    59 1   
    47    25    26 2   
    48    27    28 1   
    49    27    35 1   
    50    27    60 1   
    51    28    29 2   
    52    30    31 1   
    53    30    33 1   
    54    30    61 1   
    55    31    32 1   
    56    31    62 1   
    57    31    63 1   
    58    32    64 1   
    59    32    65 1   
    60    32    66 1   
    61    33    34 1   
    62    33    67 1   
    63    33    68 1   
    64    34    69 1   
    65    34    70 1   
    66    34    71 1   
    67    35    36 1   
    68    35    72 1   
    69    35    73 1   
    70    36    37 1   
    71    36    74 1   
    72    36    75 1   
    73    37    38 1   
    74    37    42 1   
    75    37    76 1   
    76    38    39 1   
    77    38    77 1   
    78    38    78 1   
    79    39    40 1   
    80    39    79 1   
    81    39    80 1   
    82    40    41 1   
    83    40    81 1   
    84    40    82 1   
    85    41    42 1   
    86    41    83 1   
    87    41    84 1   
    88    42    85 1   
    89    42    86 1   
@<TRIPOS>SUBSTRUCTURE
     1 O98         1 TEMP              0 ****  ****    0 ROOT
