@<TRIPOS>MOLECULE
O98
   86    89     1     0     0
SMALL
No Charge or Current Charge


@<TRIPOS>ATOM
      1 C4          -8.7750     1.4400     2.0650 ca         1 O98      -0.106500
      2 C5         -10.0500     1.9520     2.3640 ca         1 O98      -0.102500
      3 C6          -5.1140     0.4350     0.0550 cc         1 O98       0.302900
      4 N1          -5.9670     1.4100     0.3150 nd         1 O98      -0.514800
      5 C7          -7.0020    -0.7040     0.2530 cd         1 O98       0.329000
      6 C8          -5.6820    -0.8590     0.0080 cc         1 O98      -0.371600
      7 N2          -3.6330    -1.9690    -0.4710 ns         1 O98      -0.500900
      8 C9          -4.9780    -2.1180    -0.2480 c          1 O98       0.664700
      9 C10         -2.7180    -3.0720    -0.7470 c3         1 O98       0.148300
     10 C11         -1.2980    -2.5660    -0.9460 ca         1 O98      -0.092300
     11 C12         -0.8470    -2.2000    -2.2260 ca         1 O98      -0.107000
     12 N3           3.5790    -1.0080    -0.4490 ns         1 O98      -0.487900
     13 C13          0.4630    -1.7250    -2.4090 ca         1 O98      -0.074000
     14 C14          1.3510    -1.6040    -1.3160 ca         1 O98      -0.138600
     15 C15          0.8860    -1.9720    -0.0290 ca         1 O98      -0.074000
     16 N4           7.2140    -1.1990     0.3520 ns         1 O98      -0.495900
     17 O2          -5.5170    -3.2150    -0.2640 o          1 O98      -0.652100
     18 N5          -8.0120    -1.6280     0.3240 nv         1 O98      -1.068000
     19 N           -7.1400     0.6860     0.4320 na         1 O98       0.169000
     20 C3          -8.4060     1.1920     0.7270 ca         1 O98       0.007800
     21 C2          -9.3210     1.4680    -0.3090 ca         1 O98      -0.106500
     22 C1         -10.5960     1.9800    -0.0090 ca         1 O98      -0.102500
     23 C          -10.9600     2.2210     1.3270 ca         1 O98      -0.107000
     24 C16         -0.4260    -2.4460     0.1500 ca         1 O98      -0.107000
     25 C17          2.7560    -1.0860    -1.5520 c          1 O98       0.617700
     26 O1           3.1490    -0.7550    -2.6640 o          1 O98      -0.606100
     27 C18          4.9750    -0.5100    -0.4490 c3         1 O98       0.037700
     28 C19          5.8530    -1.3810     0.4960 c          1 O98       0.596100
     29 O            5.3830    -2.1700     1.3080 o          1 O98      -0.600100
     30 C20          8.2460    -1.8680     1.1500 c3         1 O98       0.108700
     31 C23          9.1870    -2.6960     0.2430 c3         1 O98      -0.089400
     32 C24          8.4710    -3.7980    -0.5670 c3         1 O98      -0.089600
     33 C21          9.0180    -0.8390     2.0100 c3         1 O98      -0.089400
     34 C22          8.1290    -0.0400     2.9890 c3         1 O98      -0.089600
     35 C25          5.0410     0.9890    -0.0450 c3         1 O98      -0.089400
     36 C26          4.2770     1.9480    -0.9940 c3         1 O98      -0.073400
     37 C27          4.4760     3.4680    -0.7090 c6         1 O98      -0.060700
     38 C32          3.9610     3.8900     0.7000 c6         1 O98      -0.071400
     39 C31          4.1470     5.4080     0.9460 c6         1 O98      -0.072900
     40 C30          3.4640     6.2470    -0.1600 c6         1 O98      -0.074400
     41 C29          3.9810     5.8420    -1.5600 c6         1 O98      -0.072900
     42 C28          3.7890     4.3260    -1.8100 c6         1 O98      -0.071400
     43 H1          -8.0720     1.2350     2.8700 ha         1 O98       0.135500
     44 H2         -10.3310     2.1410     3.3980 ha         1 O98       0.120000
     45 H3          -4.0750     0.6990    -0.0930 h4         1 O98       0.034100
     46 H4          -3.2570    -1.0310    -0.4420 hn         1 O98       0.314500
     47 H5          -2.7470    -3.7800     0.0920 h1         1 O98       0.060700
     48 H6          -3.0560    -3.6000    -1.6490 h1         1 O98       0.060700
     49 H7          -1.5130    -2.2810    -3.0830 ha         1 O98       0.122000
     50 H8           3.2010    -1.3460     0.4270 hn         1 O98       0.325500
     51 H9           0.7860    -1.4490    -3.4110 ha         1 O98       0.126500
     52 H10          1.5240    -1.8950     0.8480 ha         1 O98       0.126500
     53 H11          7.5130    -0.5330    -0.3500 hn         1 O98       0.307500
     54 H12         -8.9240    -1.3650     0.6920 hn         1 O98       0.490000
     55 H13         -7.7730    -2.6190     0.2980 hn         1 O98       0.490000
     56 H14         -9.0420     1.2840    -1.3440 ha         1 O98       0.135500
     57 H15        -11.3000     2.1900    -0.8110 ha         1 O98       0.120000
     58 H16        -11.9470     2.6170     1.5590 ha         1 O98       0.118000
     59 H17         -0.7640    -2.7210     1.1470 ha         1 O98       0.122000
     60 H18          5.3940    -0.6230    -1.4570 h1         1 O98       0.066700
     61 H19          7.7610    -2.5710     1.8420 h1         1 O98       0.082700
     62 H20          9.7100    -2.0260    -0.4510 hc         1 O98       0.039700
     63 H21          9.9570    -3.1680     0.8650 hc         1 O98       0.039700
     64 H22          7.7510    -3.3660    -1.2730 hc         1 O98       0.038367
     65 H23          9.1990    -4.3820    -1.1430 hc         1 O98       0.038367
     66 H24          7.9340    -4.4830     0.1000 hc         1 O98       0.038367
     67 H25          9.7860    -1.3650     2.5900 hc         1 O98       0.039700
     68 H26          9.5460    -0.1360     1.3540 hc         1 O98       0.039700
     69 H27          7.4040     0.5810     2.4480 hc         1 O98       0.038367
     70 H28          7.5780    -0.7170     3.6530 hc         1 O98       0.038367
     71 H29          8.7450     0.6220     3.6090 hc         1 O98       0.038367
     72 H30          4.6490     1.0910     0.9740 hc         1 O98       0.058200
     73 H31          6.0910     1.3040    -0.0100 hc         1 O98       0.058200
     74 H32          4.5990     1.7330    -2.0200 hc         1 O98       0.041200
     75 H33          3.2070     1.7100    -0.9540 hc         1 O98       0.041200
     76 H34          5.5590     3.6550    -0.7550 hc         1 O98       0.046700
     77 H35          2.8990     3.6270     0.8020 hc         1 O98       0.038200
     78 H36          4.4960     3.3390     1.4840 hc         1 O98       0.038200
     79 H37          3.7340     5.6780     1.9280 hc         1 O98       0.039200
     80 H38          5.2190     5.6470     0.9830 hc         1 O98       0.039200
     81 H39          2.3750     6.1080    -0.1110 hc         1 O98       0.039200
     82 H40          3.6510     7.3150     0.0130 hc         1 O98       0.039200
     83 H41          3.4520     6.4160    -2.3330 hc         1 O98       0.039200
     84 H42          5.0450     6.1010    -1.6530 hc         1 O98       0.039200
     85 H43          4.1960     4.0660    -2.7970 hc         1 O98       0.038200
     86 H44          2.7150     4.0940    -1.8470 hc         1 O98       0.038200
@<TRIPOS>BOND
     1     1     2 ar  
     2     1    20 ar  
     3     1    43 1   
     4     2    23 ar  
     5     2    44 1   
     6     3     4 2   
     7     3     6 1   
     8     3    45 1   
     9     4    19 1   
    10     5     6 2   
    11     5    18 1   
    12     5    19 1   
    13     6     8 1   
    14     7     8 1   
    15     7     9 1   
    16     7    46 1   
    17     8    17 2   
    18     9    10 1   
    19     9    47 1   
    20     9    48 1   
    21    10    11 ar  
    22    10    24 ar  
    23    11    13 ar  
    24    11    49 1   
    25    12    25 1   
    26    12    27 1   
    27    12    50 1   
    28    13    14 ar  
    29    13    51 1   
    30    14    15 ar  
    31    14    25 1   
    32    15    24 ar  
    33    15    52 1   
    34    16    28 1   
    35    16    30 1   
    36    16    53 1   
    37    18    54 1   
    38    18    55 1   
    39    19    20 1   
    40    20    21 ar  
    41    21    22 ar  
    42    21    56 1   
    43    22    23 ar  
    44    22    57 1   
    45    23    58 1   
    46    24    59 1   
    47    25    26 2   
    48    27    28 1   
    49    27    35 1   
    50    27    60 1   
    51    28    29 2   
    52    30    31 1   
    53    30    33 1   
    54    30    61 1   
    55    31    32 1   
    56    31    62 1   
    57    31    63 1   
    58    32    64 1   
    59    32    65 1   
    60    32    66 1   
    61    33    34 1   
    62    33    67 1   
    63    33    68 1   
    64    34    69 1   
    65    34    70 1   
    66    34    71 1   
    67    35    36 1   
    68    35    72 1   
    69    35    73 1   
    70    36    37 1   
    71    36    74 1   
    72    36    75 1   
    73    37    38 1   
    74    37    42 1   
    75    37    76 1   
    76    38    39 1   
    77    38    77 1   
    78    38    78 1   
    79    39    40 1   
    80    39    79 1   
    81    39    80 1   
    82    40    41 1   
    83    40    81 1   
    84    40    82 1   
    85    41    42 1   
    86    41    83 1   
    87    41    84 1   
    88    42    85 1   
    89    42    86 1   
@<TRIPOS>SUBSTRUCTURE
     1 O98         1 TEMP              0 ****  ****    0 ROOT
