@<TRIPOS>MOLECULE
O99
   46    48     1     0     0
SMALL
No Charge or Current Charge


@<TRIPOS>ATOM
      1 C1          11.2900   -39.7140    26.2820 ca         1 O99      -0.094000
      2 C2          11.3280   -40.3050    27.5570 ca         1 O99      -0.092000
      3 C3          12.3950   -40.0320    28.4300 ca         1 O99      -0.053000
      4 C4          13.4310   -39.1600    28.0320 ca         1 O99      -0.216500
      5 C5          15.9910   -40.1320    28.7490 ca         1 O99      -0.257500
      6 C6          15.9440   -41.3660    29.4300 ca         1 O99      -0.017000
      7 C7          16.8520   -42.3860    29.1010 ca         1 O99      -0.114000
      8 C8          17.8130   -42.1910    28.0900 ca         1 O99      -0.043300
      9 C9          18.7940   -43.3030    27.7400 c3         1 O99       0.237100
     10 C10         22.3240   -43.7950    29.5590 ca         1 O99      -0.316500
     11 C11         23.3520   -43.0260    28.9690 ca         1 O99      -0.030000
     12 C12         24.3500   -42.4510    29.7750 ca         1 O99       0.103100
     13 O1          20.5580   -45.7600    29.1760 o          1 O99      -0.527500
     14 C13         24.3270   -42.6400    31.1730 ca         1 O99       0.100100
     15 C14         23.3040   -43.4030    31.7610 ca         1 O99      -0.184000
     16 C15         22.3030   -43.9800    30.9580 ca         1 O99      -0.014000
     17 C16         17.8560   -40.9580    27.4100 ca         1 O99      -0.114000
     18 C17         16.9500   -39.9330    27.7340 ca         1 O99      -0.017000
     19 C18         13.3900   -38.5730    26.7460 ca         1 O99      -0.121000
     20 O2          25.3480   -41.7070    29.2110 oh         1 O99      -0.528100
     21 O6          14.3450   -39.0520    30.5300 o          1 O99      -0.524500
     22 S           14.8140   -38.8230    29.1560 sy         1 O99       1.019000
     23 O5          15.4150   -37.5400    28.7620 o          1 O99      -0.524500
     24 C           12.3200   -38.8500    25.8770 ca         1 O99       0.129100
     25 O           12.2740   -38.2830    24.6350 oh         1 O99      -0.531100
     26 N           19.8420   -43.3990    28.7660 n7         1 O99      -0.860300
     27 S1          21.0400   -44.5310    28.5390 sy         1 O99       1.152600
     28 O4          21.4270   -44.4580    27.1290 o          1 O99      -0.527500
     29 O3          25.3010   -42.0790    31.9550 oh         1 O99      -0.550100
     30 H1          10.4640   -39.9270    25.6080 ha         1 O99       0.133000
     31 H2          10.5300   -40.9770    27.8680 ha         1 O99       0.122000
     32 H3          12.4120   -40.5010    29.4130 ha         1 O99       0.142000
     33 H4          15.2070   -41.5410    30.2120 ha         1 O99       0.136500
     34 H5          16.8130   -43.3330    29.6350 ha         1 O99       0.126500
     35 H6          18.2400   -44.2500    27.6650 h1         1 O99       0.064700
     36 H7          19.2240   -43.1010    26.7490 h1         1 O99       0.064700
     37 H9          23.3870   -42.8700    27.8920 ha         1 O99       0.156000
     38 H12         23.2760   -43.5530    32.8370 ha         1 O99       0.121000
     39 H13         21.5130   -44.5660    31.4260 ha         1 O99       0.136000
     40 H14         18.5920   -40.7910    26.6270 ha         1 O99       0.126500
     41 H15         16.9960   -38.9890    27.1930 ha         1 O99       0.136500
     42 H16         14.1880   -37.9060    26.4270 ha         1 O99       0.130000
     43 H10         25.9230   -41.4110    29.9530 ho         1 O99       0.486000
     44 H           13.0630   -37.7100    24.5210 ho         1 O99       0.470000
     45 H8          20.3730   -42.5320    28.8020 hn         1 O99       0.481000
     46 H11         25.1250   -42.3140    32.8930 ho         1 O99       0.485000
@<TRIPOS>BOND
     1     1     2 ar  
     2     1    24 ar  
     3     1    30 1   
     4     2     3 ar  
     5     2    31 1   
     6     3     4 ar  
     7     3    32 1   
     8     4    19 ar  
     9     4    22 1   
    10     5     6 ar  
    11     5    18 ar  
    12     5    22 1   
    13     6     7 ar  
    14     6    33 1   
    15     7     8 ar  
    16     7    34 1   
    17     8     9 1   
    18     8    17 ar  
    19     9    26 1   
    20     9    35 1   
    21     9    36 1   
    22    10    11 ar  
    23    10    16 ar  
    24    10    27 1   
    25    11    12 ar  
    26    11    37 1   
    27    12    14 ar  
    28    12    20 1   
    29    13    27 2   
    30    14    15 ar  
    31    14    29 1   
    32    15    16 ar  
    33    15    38 1   
    34    16    39 1   
    35    17    18 ar  
    36    17    40 1   
    37    18    41 1   
    38    19    24 ar  
    39    19    42 1   
    40    20    43 1   
    41    21    22 2   
    42    22    23 2   
    43    24    25 1   
    44    25    44 1   
    45    26    27 1   
    46    26    45 1   
    47    27    28 2   
    48    29    46 1   
@<TRIPOS>SUBSTRUCTURE
     1 O99         1 TEMP              0 ****  ****    0 ROOT
