@<TRIPOS>MOLECULE
O99
   46    48     1     0     0
SMALL
abcg2


@<TRIPOS>ATOM
      1 C1          12.3640   -39.5790    25.3170 ca         1 O99      -0.094000
      2 C2          11.8910   -40.5120    26.2210 ca         1 O99      -0.092000
      3 C3          12.3350   -40.5250    27.5380 ca         1 O99      -0.053000
      4 C4          13.2650   -39.5730    27.9170 ca         1 O99      -0.216500
      5 C5          15.4590   -40.3740    29.4210 ca         1 O99      -0.257500
      6 C6          15.4990   -41.7600    29.3130 ca         1 O99      -0.017000
      7 C7          16.7210   -42.3910    29.1660 ca         1 O99      -0.114000
      8 C8          17.9020   -41.6510    29.1350 ca         1 O99      -0.043300
      9 C9          19.2320   -42.3250    28.9300 c3         1 O99       0.237100
     10 C10         22.0210   -43.9210    29.4970 ca         1 O99      -0.316500
     11 C11         22.6670   -43.3830    28.3890 ca         1 O99      -0.030000
     12 C12         23.8870   -42.7490    28.5480 ca         1 O99       0.103100
     13 O1          20.3150   -45.7430    30.2860 o          1 O99      -0.527500
     14 C13         24.4540   -42.6560    29.8290 ca         1 O99       0.100100
     15 C14         23.7930   -43.1950    30.9220 ca         1 O99      -0.184000
     16 C15         22.5730   -43.8340    30.7660 ca         1 O99      -0.014000
     17 C16         17.8400   -40.2680    29.2620 ca         1 O99      -0.114000
     18 C17         16.6210   -39.6200    29.3990 ca         1 O99      -0.017000
     19 C18         13.7530   -38.6180    27.0340 ca         1 O99      -0.121000
     20 O2          24.5000   -42.2380    27.4660 oh         1 O99      -0.528100
     21 O6          13.0230   -40.4130    30.3980 o          1 O99      -0.524500
     22 S           13.8870   -39.5690    29.5810 sy         1 O99       1.019000
     23 O5          14.1230   -38.1840    29.9770 o          1 O99      -0.524500
     24 C           13.3020   -38.6250    25.7190 ca         1 O99       0.129100
     25 O           13.7260   -37.7430    24.8000 oh         1 O99      -0.531100
     26 N           19.3090   -43.5520    29.7100 n7         1 O99      -0.860300
     27 S1          20.4400   -44.6840    29.2990 sy         1 O99       1.152600
     28 O4          20.2510   -44.9730    27.8880 o          1 O99      -0.527500
     29 O3          25.6420   -42.0300    29.8970 oh         1 O99      -0.550100
     30 H1          12.0120   -39.5810    24.2930 ha         1 O99       0.133000
     31 H2          11.1620   -41.2430    25.8970 ha         1 O99       0.122000
     32 H3          11.9610   -41.2590    28.2370 ha         1 O99       0.142000
     33 H4          14.5910   -42.3480    29.3370 ha         1 O99       0.136500
     34 H5          16.7550   -43.4680    29.0790 ha         1 O99       0.126500
     35 H6          19.3350   -42.5800    27.8740 h1         1 O99       0.064700
     36 H7          20.0420   -41.6310    29.1730 h1         1 O99       0.064700
     37 H9          22.2390   -43.4570    27.3970 ha         1 O99       0.156000
     38 H12         24.2380   -43.1210    31.9080 ha         1 O99       0.121000
     39 H13         22.0750   -44.2540    31.6290 ha         1 O99       0.136000
     40 H14         18.7520   -39.6850    29.2570 ha         1 O99       0.126500
     41 H15         16.5910   -38.5430    29.4930 ha         1 O99       0.136500
     42 H16         14.4760   -37.8780    27.3570 ha         1 O99       0.130000
     43 H10         25.3500   -41.8490    27.7060 ho         1 O99       0.486000
     44 H           14.3690   -37.1300    25.1760 ho         1 O99       0.470000
     45 H8          19.2880   -43.3950    30.7140 hn         1 O99       0.481000
     46 H11         25.9740   -41.9940    30.8020 ho         1 O99       0.485000
@<TRIPOS>BOND
     1     1     2 ar  
     2     1    24 ar  
     3     1    30 1   
     4     2     3 ar  
     5     2    31 1   
     6     3     4 ar  
     7     3    32 1   
     8     4    19 ar  
     9     4    22 1   
    10     5     6 ar  
    11     5    18 ar  
    12     5    22 1   
    13     6     7 ar  
    14     6    33 1   
    15     7     8 ar  
    16     7    34 1   
    17     8     9 1   
    18     8    17 ar  
    19     9    26 1   
    20     9    35 1   
    21     9    36 1   
    22    10    11 ar  
    23    10    16 ar  
    24    10    27 1   
    25    11    12 ar  
    26    11    37 1   
    27    12    14 ar  
    28    12    20 1   
    29    13    27 2   
    30    14    15 ar  
    31    14    29 1   
    32    15    16 ar  
    33    15    38 1   
    34    16    39 1   
    35    17    18 ar  
    36    17    40 1   
    37    18    41 1   
    38    19    24 ar  
    39    19    42 1   
    40    20    43 1   
    41    21    22 2   
    42    22    23 2   
    43    24    25 1   
    44    25    44 1   
    45    26    27 1   
    46    26    45 1   
    47    27    28 2   
    48    29    46 1   
@<TRIPOS>SUBSTRUCTURE
     1 O99         1 TEMP              0 ****  ****    0 ROOT
