@<TRIPOS>MOLECULE
O9B
   22    22     1     0     0
SMALL
bcc


@<TRIPOS>ATOM
      1 N5          -3.6490    36.5940    17.9300 n3         1 O9B      -0.676600
      2 C31         -3.1200    34.8740    16.1710 c          1 O9B       0.929600
      3 O6          -4.3240    34.8280    15.8520 o          1 O9B      -0.831300
      4 C32         -2.6430    36.0920    17.0050 c6         1 O9B       0.037500
      5 C33         -2.2290    37.1820    16.0110 c6         1 O9B      -0.063400
      6 C34         -1.7720    38.4550    16.7060 c6         1 O9B      -0.076400
      7 C35         -2.8450    38.9140    17.6790 c6         1 O9B      -0.069400
      8 C36         -3.2020    37.7860    18.6300 c6         1 O9B       0.166800
      9 C37         -4.0260    35.5860    18.8970 c3         1 O9B       0.166100
     10 O1          -2.2250    34.0740    15.8320 o          1 O9B      -0.831300
     11 H2          -1.7360    35.7880    17.5630 h1         1 O9B       0.005700
     12 H3          -3.0810    37.4080    15.3610 hc         1 O9B       0.047700
     13 H4          -1.4360    36.7860    15.3720 hc         1 O9B       0.047700
     14 H5          -0.8440    38.2610    17.2540 hc         1 O9B       0.017200
     15 H6          -1.5480    39.2340    15.9730 hc         1 O9B       0.017200
     16 H7          -2.5120    39.7810    18.2540 hc         1 O9B       0.025700
     17 H8          -3.7390    39.2210    17.1260 hc         1 O9B       0.025700
     18 H9          -2.3280    37.5710    19.2740 h1         1 O9B       0.002700
     19 H10         -4.0030    38.1080    19.3020 h1         1 O9B       0.002700
     20 H11         -4.7900    35.9830    19.5680 h1         1 O9B       0.018033
     21 H12         -4.4450    34.7120    18.4010 h1         1 O9B       0.018033
     22 H13         -3.1810    35.2510    19.5210 h1         1 O9B       0.018033
@<TRIPOS>BOND
     1     1     4 1   
     2     1     8 1   
     3     1     9 1   
     4     2     3 1   
     5     2     4 1   
     6     2    10 1   
     7     4     5 1   
     8     4    11 1   
     9     5     6 1   
    10     5    12 1   
    11     5    13 1   
    12     6     7 1   
    13     6    14 1   
    14     6    15 1   
    15     7     8 1   
    16     7    16 1   
    17     7    17 1   
    18     8    18 1   
    19     8    19 1   
    20     9    20 1   
    21     9    21 1   
    22     9    22 1   
@<TRIPOS>SUBSTRUCTURE
     1 O9B         1 TEMP              0 ****  ****    0 ROOT
