@<TRIPOS>MOLECULE
O9B
   22    22     1     0     0
SMALL
No Charge or Current Charge


@<TRIPOS>ATOM
      1 N5          -3.6650    36.5970    17.9590 n3         1 O9B      -0.676600
      2 C31         -3.0180    34.8030    16.1010 c          1 O9B       0.719000
      3 O6          -4.1550    34.7000    15.6520 o          1 O9B      -0.726000
      4 C32         -2.6590    36.1060    16.9300 c6         1 O9B       0.037500
      5 C33         -2.2700    37.2440    15.9410 c6         1 O9B      -0.063400
      6 C34         -1.7720    38.5060    16.6810 c6         1 O9B      -0.076400
      7 C35         -2.8170    38.9590    17.7220 c6         1 O9B      -0.069400
      8 C36         -3.1720    37.8000    18.6850 c6         1 O9B       0.166800
      9 C37         -4.0880    35.5340    18.8990 c3         1 O9B       0.166100
     10 O1          -2.3240    33.8120    16.2990 o          1 O9B      -0.726000
     11 H2          -1.7380    35.8490    17.4760 h1         1 O9B       0.005700
     12 H3          -3.1370    37.5000    15.3160 hc         1 O9B       0.047700
     13 H4          -1.4880    36.8890    15.2560 hc         1 O9B       0.047700
     14 H5          -0.8170    38.2900    17.1820 hc         1 O9B       0.017200
     15 H6          -1.5780    39.3140    15.9630 hc         1 O9B       0.017200
     16 H7          -2.4300    39.8120    18.2950 hc         1 O9B       0.025700
     17 H8          -3.7250    39.3080    17.2120 hc         1 O9B       0.025700
     18 H9          -2.2820    37.5420    19.2770 h1         1 O9B       0.002700
     19 H10         -3.9380    38.1530    19.3900 h1         1 O9B       0.002700
     20 H11         -4.8310    35.9220    19.6100 h1         1 O9B       0.018033
     21 H12         -4.5460    34.6920    18.3660 h1         1 O9B       0.018033
     22 H13         -3.2300    35.1560    19.4710 h1         1 O9B       0.018033
@<TRIPOS>BOND
     1     1     4 1   
     2     1     8 1   
     3     1     9 1   
     4     2     3 1   
     5     2     4 1   
     6     2    10 1   
     7     4     5 1   
     8     4    11 1   
     9     5     6 1   
    10     5    12 1   
    11     5    13 1   
    12     6     7 1   
    13     6    14 1   
    14     6    15 1   
    15     7     8 1   
    16     7    16 1   
    17     7    17 1   
    18     8    18 1   
    19     8    19 1   
    20     9    20 1   
    21     9    21 1   
    22     9    22 1   
@<TRIPOS>SUBSTRUCTURE
     1 O9B         1 TEMP              0 ****  ****    0 ROOT
