@<TRIPOS>MOLECULE
O9C
   40    44     1     0     0
SMALL
abcg2


@<TRIPOS>ATOM
      1 N1          26.1250     0.3180    12.4310 nc         1 O9C      -0.568100
      2 C2          23.3490     0.8640    13.1990 ca         1 O9C       0.383900
      3 N3          30.5730    -2.3440    17.0120 nh         1 O9C      -0.789300
      4 C4          25.6450     0.0780    13.6050 cd         1 O9C       0.585200
      5 N4          29.1260    -1.4620    15.4690 nb         1 O9C      -0.727000
      6 C5          27.4440    -0.0690    12.5070 ca         1 O9C       0.083400
      7 C6          28.4690    -0.0430    11.5410 ca         1 O9C      -0.067000
      8 C17         23.8770    -0.0150    15.3590 ca         1 O9C      -0.037000
      9 C           22.5640     0.2330    15.7160 ca         1 O9C      -0.174000
     10 C3          24.2880     0.3050    14.0680 ca         1 O9C      -0.174900
     11 N           22.0940     1.1030    13.5400 nb         1 O9C      -0.669000
     12 C1          21.7120     0.7910    14.7750 ca         1 O9C       0.354900
     13 O1          26.5300    -0.4430    14.4780 os         1 O9C      -0.241700
     14 C16         27.6830    -0.5400    13.7790 ca         1 O9C       0.021100
     15 C15         28.9230    -1.0190    14.2180 ca         1 O9C       0.321000
     16 C8          29.9400    -0.9850    13.2360 ca         1 O9C       0.180000
     17 C7          29.7000    -0.5030    11.9240 ca         1 O9C      -0.067000
     18 C10         30.3350    -1.8870    15.7680 ca         1 O9C       0.589900
     19 C9          31.3760    -1.8750    14.7680 ca         1 O9C       0.265900
     20 N2          31.1750    -1.4400    13.5660 nb         1 O9C      -0.600000
     21 C14         31.9050    -2.6800    17.4900 c6         1 O9C       0.194800
     22 C13         31.9370    -2.5740    19.0040 c6         1 O9C       0.144100
     23 O           31.0120    -3.4260    19.6430 os         1 O9C      -0.451000
     24 C12         29.8210    -3.6440    18.9150 c6         1 O9C       0.144100
     25 C11         29.4820    -2.5190    17.9560 c6         1 O9C       0.194800
     26 H2          28.2850     0.3250    10.5410 ha         1 O9C       0.140000
     27 H3          24.5610    -0.4500    16.0760 ha         1 O9C       0.135000
     28 H4          22.2040    -0.0020    16.7080 ha         1 O9C       0.129000
     29 H5          20.6780     0.9970    15.0280 h4         1 O9C       0.023100
     30 H6          30.5280    -0.5100    11.2270 ha         1 O9C       0.136000
     31 H7          32.3660    -2.2540    14.9930 h4         1 O9C       0.029100
     32 H8          32.2050    -3.6830    17.1680 h1         1 O9C       0.062700
     33 H9          32.6420    -1.9770    17.1000 h1         1 O9C       0.062700
     34 H10         32.9350    -2.8450    19.3520 h1         1 O9C       0.054700
     35 H11         31.7660    -1.5290    19.2900 h1         1 O9C       0.054700
     36 H12         29.0040    -3.7560    19.6310 h1         1 O9C       0.054700
     37 H13         29.8870    -4.5810    18.3480 h1         1 O9C       0.054700
     38 H14         29.2710    -1.5890    18.4950 h1         1 O9C       0.062700
     39 H15         28.5730    -2.7870    17.4180 h1         1 O9C       0.062700
     40 H1          23.6390     1.1260    12.1880 h4         1 O9C       0.044100
@<TRIPOS>BOND
     1     1     4 2   
     2     1     6 1   
     3     2    10 ar  
     4     2    11 ar  
     5     2    40 1   
     6     3    18 1   
     7     3    21 1   
     8     3    25 1   
     9     4    10 1   
    10     4    13 1   
    11     5    15 ar  
    12     5    18 ar  
    13     6     7 ar  
    14     6    14 ar  
    15     7    17 ar  
    16     7    26 1   
    17     8     9 ar  
    18     8    10 ar  
    19     8    27 1   
    20     9    12 ar  
    21     9    28 1   
    22    11    12 ar  
    23    12    29 1   
    24    13    14 1   
    25    14    15 ar  
    26    15    16 ar  
    27    16    17 ar  
    28    16    20 ar  
    29    17    30 1   
    30    18    19 ar  
    31    19    20 ar  
    32    19    31 1   
    33    21    22 1   
    34    21    32 1   
    35    21    33 1   
    36    22    23 1   
    37    22    34 1   
    38    22    35 1   
    39    23    24 1   
    40    24    25 1   
    41    24    36 1   
    42    24    37 1   
    43    25    38 1   
    44    25    39 1   
@<TRIPOS>SUBSTRUCTURE
     1 O9C         1 TEMP              0 ****  ****    0 ROOT
