@<TRIPOS>MOLECULE
O9C
   40    44     1     0     0
SMALL
No Charge or Current Charge


@<TRIPOS>ATOM
      1 N1          26.1030     0.3820    12.3430 nc         1 O9C      -0.568100
      2 C2          23.3140     0.8960    13.2030 ca         1 O9C       0.383900
      3 N3          30.5840    -2.4260    16.9870 nh         1 O9C      -0.789300
      4 C4          25.6400     0.1070    13.5780 cd         1 O9C       0.585200
      5 N4          29.1630    -1.4950    15.3840 nb         1 O9C      -0.727000
      6 C5          27.4300    -0.0390    12.4680 ca         1 O9C       0.083400
      7 C6          28.4360    -0.0060    11.4960 ca         1 O9C      -0.067000
      8 C17         23.8890     0.0130    15.3810 ca         1 O9C      -0.037000
      9 C           22.5640     0.2640    15.7680 ca         1 O9C      -0.174000
     10 C3          24.2750     0.3370    14.0640 ca         1 O9C      -0.174900
     11 N           22.0330     1.1390    13.5760 nb         1 O9C      -0.669000
     12 C1          21.6720     0.8250    14.8410 ca         1 O9C       0.354900
     13 O1          26.5610    -0.4370    14.4300 os         1 O9C      -0.241700
     14 C16         27.7020    -0.5290    13.7210 ca         1 O9C       0.021100
     15 C15         28.9570    -1.0210    14.1230 ca         1 O9C       0.321000
     16 C8          30.0020    -0.9930    13.1310 ca         1 O9C       0.180000
     17 C7          29.7190    -0.4860    11.8370 ca         1 O9C      -0.067000
     18 C10         30.4090    -1.9420    15.6620 ca         1 O9C       0.589900
     19 C9          31.4470    -1.9160    14.6740 ca         1 O9C       0.265900
     20 N2          31.2530    -1.4440    13.4100 nb         1 O9C      -0.600000
     21 C14         31.9460    -2.6530    17.5780 c6         1 O9C       0.194800
     22 C13         31.9240    -2.4750    19.1260 c6         1 O9C       0.144100
     23 O           30.9790    -3.3640    19.7870 os         1 O9C      -0.451000
     24 C12         29.8020    -3.7280    19.0090 c6         1 O9C       0.144100
     25 C11         29.4300    -2.6770    17.9210 c6         1 O9C       0.194800
     26 H2          28.2310     0.3800    10.5010 ha         1 O9C       0.140000
     27 H3          24.5930    -0.4220    16.0900 ha         1 O9C       0.135000
     28 H4          22.2240     0.0300    16.7730 ha         1 O9C       0.129000
     29 H5          20.6380     1.0290    15.1170 h4         1 O9C       0.023100
     30 H6          30.5090    -0.4660    11.0900 ha         1 O9C       0.136000
     31 H7          32.4470    -2.2840    14.8970 h4         1 O9C       0.029100
     32 H8          32.3090    -3.6620    17.3320 h1         1 O9C       0.062700
     33 H9          32.6700    -1.9330    17.1690 h1         1 O9C       0.062700
     34 H10         32.9270    -2.6500    19.5390 h1         1 O9C       0.054700
     35 H11         31.6470    -1.4370    19.3590 h1         1 O9C       0.054700
     36 H12         28.9550    -3.8780    19.6930 h1         1 O9C       0.054700
     37 H13         30.0000    -4.6900    18.5140 h1         1 O9C       0.054700
     38 H14         29.1220    -1.7410    18.4100 h1         1 O9C       0.062700
     39 H15         28.5590    -3.0620    17.3700 h1         1 O9C       0.062700
     40 H1          23.5650     1.1630    12.1760 h4         1 O9C       0.044100
@<TRIPOS>BOND
     1     1     4 2   
     2     1     6 1   
     3     2    10 ar  
     4     2    11 ar  
     5     2    40 1   
     6     3    18 1   
     7     3    21 1   
     8     3    25 1   
     9     4    10 1   
    10     4    13 1   
    11     5    15 ar  
    12     5    18 ar  
    13     6     7 ar  
    14     6    14 ar  
    15     7    17 ar  
    16     7    26 1   
    17     8     9 ar  
    18     8    10 ar  
    19     8    27 1   
    20     9    12 ar  
    21     9    28 1   
    22    11    12 ar  
    23    12    29 1   
    24    13    14 1   
    25    14    15 ar  
    26    15    16 ar  
    27    16    17 ar  
    28    16    20 ar  
    29    17    30 1   
    30    18    19 ar  
    31    19    20 ar  
    32    19    31 1   
    33    21    22 1   
    34    21    32 1   
    35    21    33 1   
    36    22    23 1   
    37    22    34 1   
    38    22    35 1   
    39    23    24 1   
    40    24    25 1   
    41    24    36 1   
    42    24    37 1   
    43    25    38 1   
    44    25    39 1   
@<TRIPOS>SUBSTRUCTURE
     1 O9C         1 TEMP              0 ****  ****    0 ROOT
