@<TRIPOS>MOLECULE
O9E
   80    84     1     0     0
SMALL
bcc


@<TRIPOS>ATOM
      1 N          -17.4180   -22.6950     4.5630 n          1 O9E      -0.458800
      2 C          -17.0100   -23.8220     5.1880 c          1 O9E       0.716700
      3 O          -17.6430   -24.8700     5.1150 o          1 O9E      -0.604100
      4 O1         -13.6880   -22.6180    -0.1060 o          1 O9E      -0.632100
      5 N4         -12.2840   -20.8810     0.1780 n          1 O9E      -0.457800
      6 C23        -11.1120   -20.2650     0.7610 c3         1 O9E       0.093300
      7 C18        -12.8160   -20.2510    -1.0200 c3         1 O9E       0.087700
      8 C19        -12.1760   -20.7550    -2.2690 cc         1 O9E       0.229600
      9 N7         -11.1240   -20.1410    -2.8530 nc         1 O9E      -0.365000
     10 N6         -10.7580   -20.8150    -3.8900 nd         1 O9E      -0.212800
     11 N5         -11.5530   -21.8640    -3.9930 na         1 O9E       0.100400
     12 C21        -11.4210   -22.7850    -5.1100 c3         1 O9E       0.051300
     13 C22        -12.0230   -22.2250    -6.3860 c3         1 O9E      -0.111100
     14 C20        -12.4630   -21.8760    -3.0080 cd         1 O9E      -0.207600
     15 C16        -12.4600   -22.6350     1.8680 cc         1 O9E      -0.141700
     16 S          -12.8260   -24.3110     2.0460 ss         1 O9E       0.002200
     17 C14        -12.3290   -24.3240     3.6860 cc         1 O9E      -0.039400
     18 C15        -12.3870   -25.5870     4.4740 c3         1 O9E      -0.026800
     19 C24        -11.9970   -22.1190     3.0410 cd         1 O9E      -0.080000
     20 C13        -11.9300   -23.0730     4.0940 cd         1 O9E      -0.090800
     21 C12        -11.5110   -22.7290     5.4530 cf         1 O9E      -0.037400
     22 C25        -10.1890   -22.0650     5.7420 c5         1 O9E      -0.040200
     23 C26        -10.3320   -21.6230     7.2030 c5         1 O9E      -0.080400
     24 C27        -11.3920   -22.5630     7.7960 c5         1 O9E      -0.037200
     25 C11        -12.1890   -22.9830     6.5840 ce         1 O9E      -0.048400
     26 C10        -13.5400   -23.5410     6.6500 cc         1 O9E      -0.074800
     27 C9         -14.5660   -23.1660     5.7330 cc         1 O9E      -0.084000
     28 C28        -13.9780   -24.4740     7.5590 cd         1 O9E      -0.057400
     29 C29        -13.2180   -25.1300     8.6650 c3         1 O9E      -0.021800
     30 S1         -15.6130   -24.9080     7.2720 ss         1 O9E      -0.022800
     31 C8         -15.7490   -23.8040     5.9550 cd         1 O9E      -0.157700
     32 C7         -18.5740   -22.7760     3.6910 c3         1 O9E       0.084300
     33 C1         -17.0290   -21.3470     4.9470 c3         1 O9E       0.093700
     34 C2         -16.3540   -20.5950     3.8490 cc         1 O9E       0.241600
     35 N3         -15.1370   -20.9250     3.3650 nc         1 O9E      -0.347000
     36 N2         -14.8120   -20.1050     2.4290 nd         1 O9E      -0.196800
     37 N1         -15.8000   -19.2350     2.2900 na         1 O9E       0.105400
     38 C3         -16.7930   -19.4980     3.1550 cd         1 O9E      -0.235600
     39 C4         -15.7380   -18.1740     1.2990 c3         1 O9E       0.045300
     40 C5         -16.8710   -18.2630     0.2880 c3         1 O9E      -0.093400
     41 C6         -16.8420   -19.5320    -0.5510 c3         1 O9E      -0.095100
     42 H1         -10.4790   -21.0030     1.2460 h1         1 O9E       0.043700
     43 H2         -10.5250   -19.8060    -0.0320 h1         1 O9E       0.043700
     44 H3         -11.3700   -19.4890     1.4840 h1         1 O9E       0.043700
     45 H4         -12.6500   -19.1760    -0.9340 h1         1 O9E       0.064200
     46 H5         -13.8920   -20.4080    -1.0570 h1         1 O9E       0.064200
     47 H6         -11.9120   -23.7120    -4.8180 h1         1 O9E       0.067700
     48 H7         -10.3610   -23.0000    -5.2370 h1         1 O9E       0.067700
     49 H8         -11.9170   -22.9550    -7.1870 hc         1 O9E       0.052033
     50 H9         -13.0830   -22.0100    -6.2610 hc         1 O9E       0.052033
     51 H10        -11.5150   -21.3120    -6.6920 hc         1 O9E       0.052033
     52 H11        -13.2100   -22.6430    -2.9050 h4         1 O9E       0.200000
     53 H12        -12.1050   -26.4510     3.8730 hc         1 O9E       0.050700
     54 H13        -11.7160   -25.5340     5.3310 hc         1 O9E       0.050700
     55 H14        -13.3940   -25.7660     4.8600 hc         1 O9E       0.050700
     56 H15        -11.7640   -21.0750     3.1910 ha         1 O9E       0.153000
     57 H16         -9.3730   -22.7850     5.6070 hc         1 O9E       0.050700
     58 H17         -9.9780   -21.2330     5.0660 hc         1 O9E       0.050700
     59 H18         -9.3910   -21.6480     7.7510 hc         1 O9E       0.044200
     60 H19        -10.7010   -20.5970     7.2370 hc         1 O9E       0.044200
     61 H20        -12.0080   -22.0790     8.5570 hc         1 O9E       0.049700
     62 H21        -10.9270   -23.4310     8.2750 hc         1 O9E       0.049700
     63 H22        -14.4130   -22.4620     4.9250 ha         1 O9E       0.192000
     64 H23        -13.7390   -26.0070     9.0440 hc         1 O9E       0.046367
     65 H24        -12.2370   -25.4540     8.3190 hc         1 O9E       0.046367
     66 H25        -13.0650   -24.4500     9.5040 hc         1 O9E       0.046367
     67 H26        -18.5590   -23.6940     3.1110 h1         1 O9E       0.041700
     68 H27        -19.5110   -22.7300     4.2520 h1         1 O9E       0.041700
     69 H28        -18.5490   -21.9380     2.9970 h1         1 O9E       0.041700
     70 H29        -16.3950   -21.3890     5.8300 h1         1 O9E       0.059200
     71 H30        -17.9290   -20.8020     5.2460 h1         1 O9E       0.059200
     72 H31        -17.6960   -18.9130     3.2160 h4         1 O9E       0.184000
     73 H32        -14.7670   -18.2640     0.8130 h1         1 O9E       0.072200
     74 H33        -15.7610   -17.2160     1.8190 h1         1 O9E       0.072200
     75 H34        -16.7930   -17.3880    -0.3590 hc         1 O9E       0.049700
     76 H35        -17.8310   -18.1710     0.8030 hc         1 O9E       0.049700
     77 H36        -17.6980   -19.5690    -1.2240 hc         1 O9E       0.044700
     78 H37        -15.9410   -19.5740    -1.1630 hc         1 O9E       0.044700
     79 H38        -16.8680   -20.4330     0.0640 hc         1 O9E       0.044700
     80 C17        -12.8510   -22.0350     0.5800 c          1 O9E       0.724700
@<TRIPOS>BOND
     1     1     2 1   
     2     1    32 1   
     3     1    33 1   
     4     2     3 2   
     5     2    31 1   
     6     4    80 2   
     7     5     6 1   
     8     5     7 1   
     9     5    80 1   
    10     6    42 1   
    11     6    43 1   
    12     6    44 1   
    13     7     8 1   
    14     7    45 1   
    15     7    46 1   
    16     8     9 1   
    17     8    14 2   
    18     9    10 2   
    19    10    11 1   
    20    11    12 1   
    21    11    14 1   
    22    12    13 1   
    23    12    47 1   
    24    12    48 1   
    25    13    49 1   
    26    13    50 1   
    27    13    51 1   
    28    14    52 1   
    29    15    16 1   
    30    15    19 2   
    31    15    80 1   
    32    16    17 1   
    33    17    18 1   
    34    17    20 2   
    35    18    53 1   
    36    18    54 1   
    37    18    55 1   
    38    19    20 1   
    39    19    56 1   
    40    20    21 1   
    41    21    22 1   
    42    21    25 2   
    43    22    23 1   
    44    22    57 1   
    45    22    58 1   
    46    23    24 1   
    47    23    59 1   
    48    23    60 1   
    49    24    25 1   
    50    24    61 1   
    51    24    62 1   
    52    25    26 1   
    53    26    27 1   
    54    26    28 2   
    55    27    31 2   
    56    27    63 1   
    57    28    29 1   
    58    28    30 1   
    59    29    64 1   
    60    29    65 1   
    61    29    66 1   
    62    30    31 1   
    63    32    67 1   
    64    32    68 1   
    65    32    69 1   
    66    33    34 1   
    67    33    70 1   
    68    33    71 1   
    69    34    35 1   
    70    34    38 2   
    71    35    36 2   
    72    36    37 1   
    73    37    38 1   
    74    37    39 1   
    75    38    72 1   
    76    39    40 1   
    77    39    73 1   
    78    39    74 1   
    79    40    41 1   
    80    40    75 1   
    81    40    76 1   
    82    41    77 1   
    83    41    78 1   
    84    41    79 1   
@<TRIPOS>SUBSTRUCTURE
     1 O9E         1 TEMP              0 ****  ****    0 ROOT
