@<TRIPOS>MOLECULE
O9E
   80    84     1     0     0
SMALL
No Charge or Current Charge


@<TRIPOS>ATOM
      1 N          -17.2380   -22.3730     4.4270 n          1 O9E      -0.391800
      2 C          -17.1000   -23.5240     5.2450 c          1 O9E       0.649700
      3 O          -17.9880   -24.3670     5.2840 o          1 O9E      -0.604100
      4 O1         -13.5390   -23.4650    -0.2110 o          1 O9E      -0.632100
      5 N4         -12.6850   -21.4020     0.3100 n          1 O9E      -0.390800
      6 C23        -11.5340   -20.6600     0.8740 c3         1 O9E       0.093300
      7 C18        -13.3890   -20.7390    -0.8150 c3         1 O9E       0.087700
      8 C19        -12.6250   -20.8180    -2.1150 cc         1 O9E       0.164300
      9 N7         -12.1340   -19.6970    -2.7240 nc         1 O9E      -0.365000
     10 N6         -11.5200   -20.0580    -3.8230 nd         1 O9E      -0.212800
     11 N5         -11.6210   -21.4230    -3.9150 na         1 O9E       0.121800
     12 C21        -11.0410   -22.1730    -5.0390 c3         1 O9E       0.080600
     13 C22        -12.0770   -22.5360    -6.1220 c3         1 O9E      -0.111100
     14 C20        -12.3200   -21.9260    -2.8430 cd         1 O9E      -0.175000
     15 C16        -12.4820   -23.3390     1.8920 cc         1 O9E      -0.286600
     16 S          -12.5020   -25.0740     2.1520 ss         1 O9E       0.292000
     17 C14        -11.9420   -24.8700     3.8100 cc         1 O9E      -0.184300
     18 C15        -11.7360   -26.0620     4.7070 c3         1 O9E      -0.026800
     19 C24        -12.1330   -22.6820     3.0510 cd         1 O9E      -0.062000
     20 C13        -11.8110   -23.5410     4.1370 cd         1 O9E      -0.090800
     21 C12        -11.4640   -23.0650     5.4720 cf         1 O9E      -0.037400
     22 C25        -10.1440   -22.3360     5.7520 c5         1 O9E      -0.040200
     23 C26        -10.5180   -21.4380     6.9560 c5         1 O9E      -0.080400
     24 C27        -11.4890   -22.3690     7.7340 c5         1 O9E      -0.037200
     25 C11        -12.2320   -23.0540     6.5920 ce         1 O9E      -0.048400
     26 C10        -13.5910   -23.5680     6.6860 cc         1 O9E      -0.074800
     27 C9         -14.6410   -23.0880     5.8600 cc         1 O9E      -0.066000
     28 C28        -14.0100   -24.5930     7.4980 cd         1 O9E      -0.202300
     29 C29        -13.1780   -25.3800     8.4770 c3         1 O9E      -0.021800
     30 S1         -15.7260   -24.9750     7.2660 ss         1 O9E       0.267000
     31 C8         -15.8570   -23.7060     6.0430 cd         1 O9E      -0.302600
     32 C7         -18.3060   -22.3700     3.3990 c3         1 O9E       0.084300
     33 C1         -16.7950   -21.0250     4.8840 c3         1 O9E       0.093700
     34 C2         -16.1550   -20.1950     3.7930 cc         1 O9E       0.176300
     35 N3         -14.8520   -20.3600     3.4190 nc         1 O9E      -0.347000
     36 N2         -14.5840   -19.5130     2.4580 nd         1 O9E      -0.196800
     37 N1         -15.7290   -18.8020     2.2110 na         1 O9E       0.126800
     38 C3         -16.7350   -19.2100     3.0560 cd         1 O9E      -0.203000
     39 C4         -15.7860   -17.7490     1.1820 c3         1 O9E       0.074600
     40 C5         -16.9310   -17.9310     0.1550 c3         1 O9E      -0.093400
     41 C6         -16.8010   -19.2010    -0.7120 c3         1 O9E      -0.095100
     42 H1         -10.7570   -21.3540     1.2200 h1         1 O9E       0.043700
     43 H2         -11.0890   -20.0170     0.1040 h1         1 O9E       0.043700
     44 H3         -11.8660   -20.0230     1.7020 h1         1 O9E       0.043700
     45 H4         -13.5530   -19.6850    -0.5550 h1         1 O9E       0.064200
     46 H5         -14.3790   -21.1930    -0.9520 h1         1 O9E       0.064200
     47 H6         -10.5890   -23.0920    -4.6450 h1         1 O9E       0.067700
     48 H7         -10.2390   -21.5730    -5.4890 h1         1 O9E       0.067700
     49 H8         -11.5980   -23.0930    -6.9360 hc         1 O9E       0.052033
     50 H9         -12.8750   -23.1590    -5.7010 hc         1 O9E       0.052033
     51 H10        -12.5280   -21.6290    -6.5420 hc         1 O9E       0.052033
     52 H11        -12.5350   -22.9750    -2.6880 h4         1 O9E       0.182000
     53 H12        -11.5050   -26.9620     4.1250 hc         1 O9E       0.050700
     54 H13        -10.9080   -25.8920     5.4060 hc         1 O9E       0.050700
     55 H14        -12.6390   -26.2630     5.2970 hc         1 O9E       0.050700
     56 H15        -12.1440   -21.6070     3.1780 ha         1 O9E       0.135000
     57 H16         -9.3530   -23.0500     6.0080 hc         1 O9E       0.050700
     58 H17         -9.7970   -21.7510     4.8930 hc         1 O9E       0.050700
     59 H18         -9.6490   -21.1330     7.5490 hc         1 O9E       0.044200
     60 H19        -11.0300   -20.5280     6.6220 hc         1 O9E       0.044200
     61 H20        -12.1630   -21.8090     8.3930 hc         1 O9E       0.049700
     62 H21        -10.9520   -23.1010     8.3480 hc         1 O9E       0.049700
     63 H22        -14.4370   -22.3360     5.1060 ha         1 O9E       0.174000
     64 H23        -13.6900   -26.2980     8.7910 hc         1 O9E       0.046367
     65 H24        -12.2180   -25.6700     8.0350 hc         1 O9E       0.046367
     66 H25        -12.9690   -24.7890     9.3770 hc         1 O9E       0.046367
     67 H26        -18.3460   -23.3450     2.8960 h1         1 O9E       0.041700
     68 H27        -19.2750   -22.1690     3.8730 h1         1 O9E       0.041700
     69 H28        -18.1110   -21.6020     2.6410 h1         1 O9E       0.041700
     70 H29        -16.1250   -21.0850     5.7480 h1         1 O9E       0.059200
     71 H30        -17.6840   -20.4850     5.2360 h1         1 O9E       0.059200
     72 H31        -17.7350   -18.7950     3.0630 h4         1 O9E       0.166000
     73 H32        -14.8250   -17.7180     0.6520 h1         1 O9E       0.072200
     74 H33        -15.9140   -16.7870     1.6930 h1         1 O9E       0.072200
     75 H34        -16.9510   -17.0560    -0.5060 hc         1 O9E       0.049700
     76 H35        -17.8930   -17.9480     0.6800 hc         1 O9E       0.049700
     77 H36        -17.6510   -19.2810    -1.4000 hc         1 O9E       0.044700
     78 H37        -15.8830   -19.1680    -1.3100 hc         1 O9E       0.044700
     79 H38        -16.7810   -20.1050    -0.0900 hc         1 O9E       0.044700
     80 C17        -12.9430   -22.7670     0.6000 c          1 O9E       0.657700
@<TRIPOS>BOND
     1     1     2 1   
     2     1    32 1   
     3     1    33 1   
     4     2     3 2   
     5     2    31 1   
     6     4    80 2   
     7     5     6 1   
     8     5     7 1   
     9     5    80 1   
    10     6    42 1   
    11     6    43 1   
    12     6    44 1   
    13     7     8 1   
    14     7    45 1   
    15     7    46 1   
    16     8     9 1   
    17     8    14 2   
    18     9    10 2   
    19    10    11 1   
    20    11    12 1   
    21    11    14 1   
    22    12    13 1   
    23    12    47 1   
    24    12    48 1   
    25    13    49 1   
    26    13    50 1   
    27    13    51 1   
    28    14    52 1   
    29    15    16 1   
    30    15    19 2   
    31    15    80 1   
    32    16    17 1   
    33    17    18 1   
    34    17    20 2   
    35    18    53 1   
    36    18    54 1   
    37    18    55 1   
    38    19    20 1   
    39    19    56 1   
    40    20    21 1   
    41    21    22 1   
    42    21    25 2   
    43    22    23 1   
    44    22    57 1   
    45    22    58 1   
    46    23    24 1   
    47    23    59 1   
    48    23    60 1   
    49    24    25 1   
    50    24    61 1   
    51    24    62 1   
    52    25    26 1   
    53    26    27 1   
    54    26    28 2   
    55    27    31 2   
    56    27    63 1   
    57    28    29 1   
    58    28    30 1   
    59    29    64 1   
    60    29    65 1   
    61    29    66 1   
    62    30    31 1   
    63    32    67 1   
    64    32    68 1   
    65    32    69 1   
    66    33    34 1   
    67    33    70 1   
    68    33    71 1   
    69    34    35 1   
    70    34    38 2   
    71    35    36 2   
    72    36    37 1   
    73    37    38 1   
    74    37    39 1   
    75    38    72 1   
    76    39    40 1   
    77    39    73 1   
    78    39    74 1   
    79    40    41 1   
    80    40    75 1   
    81    40    76 1   
    82    41    77 1   
    83    41    78 1   
    84    41    79 1   
@<TRIPOS>SUBSTRUCTURE
     1 O9E         1 TEMP              0 ****  ****    0 ROOT
