@<TRIPOS>MOLECULE
O9F
   21    21     1     0     0
SMALL
abcg2


@<TRIPOS>ATOM
      1 C1           7.8620     1.0330     9.3770 ca         1 O9F       0.170100
      2 O1          12.8400     1.4990     9.2270 o          1 O9F      -0.533100
      3 C2           8.7200     2.1270     9.5080 ca         1 O9F      -0.191500
      4 C3          10.0870     1.9400     9.4190 ca         1 O9F      -0.024000
      5 C4          10.6400     0.6790     9.2000 ca         1 O9F      -0.221600
      6 C5          12.1120     0.5330     9.1120 c          1 O9F       0.590700
      7 C6          12.6780    -0.8430     8.8820 c3         1 O9F      -0.195100
      8 C7           9.7680    -0.4070     9.0710 ca         1 O9F      -0.024000
      9 C8           8.4020    -0.2390     9.1570 ca         1 O9F      -0.191500
     10 O            6.5280     1.1070     9.4460 os         1 O9F      -0.338100
     11 C            5.9220     2.3660     9.6720 c3         1 O9F       0.147900
     12 H1           8.3390     3.1250     9.6790 ha         1 O9F       0.125500
     13 H2          10.7370     2.7980     9.5240 ha         1 O9F       0.123500
     14 H3          13.7630    -0.7990     8.8240 hc         1 O9F       0.060033
     15 H4          12.3980    -1.5190     9.6920 hc         1 O9F       0.060033
     16 H5          12.2950    -1.2790     7.9580 hc         1 O9F       0.060033
     17 H6          10.1500    -1.4050     8.9010 ha         1 O9F       0.123500
     18 H7           7.7380    -1.0880     9.0560 ha         1 O9F       0.125500
     19 H8           4.8500     2.1890     9.7000 h1         1 O9F       0.044367
     20 H9           6.2320     2.8020    10.6250 h1         1 O9F       0.044367
     21 H10          6.1420     3.0740     8.8700 h1         1 O9F       0.044367
@<TRIPOS>BOND
     1     1     3 ar  
     2     1     9 ar  
     3     1    10 1   
     4     2     6 2   
     5     3     4 ar  
     6     3    12 1   
     7     4     5 ar  
     8     4    13 1   
     9     5     6 1   
    10     5     8 ar  
    11     6     7 1   
    12     7    14 1   
    13     7    15 1   
    14     7    16 1   
    15     8     9 ar  
    16     8    17 1   
    17     9    18 1   
    18    10    11 1   
    19    11    19 1   
    20    11    20 1   
    21    11    21 1   
@<TRIPOS>SUBSTRUCTURE
     1 O9F         1 TEMP              0 ****  ****    0 ROOT
