@<TRIPOS>MOLECULE
O9F
   21    21     1     0     0
SMALL
No Charge or Current Charge


@<TRIPOS>ATOM
      1 C1           7.8530     1.0240     9.3800 ca         1 O9F       0.170100
      2 O1          12.9090     1.4850     9.2220 o          1 O9F      -0.533100
      3 C2           8.7150     2.1310     9.5100 ca         1 O9F      -0.191500
      4 C3          10.1070     1.9560     9.4200 ca         1 O9F      -0.024000
      5 C4          10.6620     0.6750     9.2000 ca         1 O9F      -0.221600
      6 C5          12.1670     0.5160     9.1080 c          1 O9F       0.590700
      7 C6          12.7720    -0.8690     8.8710 c3         1 O9F      -0.195100
      8 C7           9.7870    -0.4290     9.0720 ca         1 O9F      -0.024000
      9 C8           8.3970    -0.2480     9.1620 ca         1 O9F      -0.191500
     10 O            6.4800     1.1350     9.4590 os         1 O9F      -0.338100
     11 C            5.8230     2.3960     9.6800 c3         1 O9F       0.147900
     12 H1           8.3280     3.1320     9.6790 ha         1 O9F       0.125500
     13 H2          10.7520     2.8270     9.5240 ha         1 O9F       0.123500
     14 H3          13.8670    -0.8480     8.8240 hc         1 O9F       0.060033
     15 H4          12.4180    -1.5530     9.6490 hc         1 O9F       0.060033
     16 H5          12.3420    -1.2960     7.9580 hc         1 O9F       0.060033
     17 H6          10.1660    -1.4340     8.9020 ha         1 O9F       0.123500
     18 H7           7.7350    -1.1040     9.0620 ha         1 O9F       0.125500
     19 H8           4.7350     2.2580     9.7080 h1         1 O9F       0.044367
     20 H9           6.1340     2.8360    10.6360 h1         1 O9F       0.044367
     21 H10          6.0550     3.1040     8.8740 h1         1 O9F       0.044367
@<TRIPOS>BOND
     1     1     3 ar  
     2     1     9 ar  
     3     1    10 1   
     4     2     6 2   
     5     3     4 ar  
     6     3    12 1   
     7     4     5 ar  
     8     4    13 1   
     9     5     6 1   
    10     5     8 ar  
    11     6     7 1   
    12     7    14 1   
    13     7    15 1   
    14     7    16 1   
    15     8     9 ar  
    16     8    17 1   
    17     9    18 1   
    18    10    11 1   
    19    11    19 1   
    20    11    20 1   
    21    11    21 1   
@<TRIPOS>SUBSTRUCTURE
     1 O9F         1 TEMP              0 ****  ****    0 ROOT
