@<TRIPOS>MOLECULE
O9H
   62    63     1     0     0
SMALL
No Charge or Current Charge


@<TRIPOS>ATOM
      1 N1          -2.6060    25.8180    14.5420 nu         1 O9H      -0.708200
      2 C5          -3.5620    23.5180    14.1270 c          1 O9H       0.598100
      3 O1          -2.7220    22.9550    14.8250 o          1 O9H      -0.495100
      4 C1          -2.2360    28.3280    14.8120 c3         1 O9H       0.168300
      5 C2          -2.5620    27.1360    13.8440 c5         1 O9H       0.319500
      6 S1          -4.2040    27.3900    12.9950 ss         1 O9H      -0.433600
      7 C3          -4.4760    25.6440    13.1030 c2         1 O9H       0.051400
      8 C4          -3.6000    25.0190    13.9090 ce         1 O9H      -0.064200
      9 C18         -5.6010    25.0460    12.2780 c3         1 O9H      -0.032200
     10 C19         -5.1120    24.6160    10.8840 c3         1 O9H       0.159600
     11 O4          -4.1920    23.5200    11.0560 os         1 O9H      -0.462000
     12 C20         -3.1740    23.4050    10.0450 c3         1 O9H       0.204900
     13 C21         -2.1050    24.4640    10.3050 ca         1 O9H      -0.128300
     14 C22         -1.2050    24.3070    11.3780 ca         1 O9H      -0.091500
     15 C23         -0.2270    25.2840    11.6350 ca         1 O9H      -0.112000
     16 C24         -0.1430    26.4250    10.8200 ca         1 O9H      -0.121000
     17 C25         -1.0370    26.5880     9.7480 ca         1 O9H      -0.112000
     18 C26         -2.0140    25.6100     9.4900 ca         1 O9H      -0.091500
     19 C27         -3.2420    28.5140    15.9760 c3         1 O9H      -0.120400
     20 C28         -2.8560    29.6160    16.9960 c3         1 O9H       0.127300
     21 N3          -2.5820    30.9330    16.2750 ny         1 O9H      -0.823000
     22 C41         -3.7260    31.5750    15.4650 c3         1 O9H       0.071900
     23 C42         -3.9140    29.8100    18.1270 c3         1 O9H      -0.082700
     24 C43         -3.5440    30.9720    19.0840 c3         1 O9H      -0.108600
     25 C44         -4.1570    28.5180    18.9490 c3         1 O9H      -0.108600
     26 O7          -0.9370    28.1280    15.4180 os         1 O9H      -0.456100
     27 C45          0.1860    28.2420    14.6410 c          1 O9H       0.594100
     28 O8           0.1870    28.5930    13.4710 o          1 O9H      -0.473000
     29 C46          1.4460    27.9660    15.4410 c3         1 O9H      -0.157100
     30 H1          -1.7660    25.3640    14.9070 hn         1 O9H       0.446000
     31 H2          -4.3510    22.9270    13.6150 h4         1 O9H       0.026200
     32 H3          -2.2390    29.2470    14.2120 h1         1 O9H       0.058700
     33 H4          -1.7980    27.1120    13.0540 h2         1 O9H       0.133700
     34 H5          -6.3970    25.7890    12.1500 hc         1 O9H       0.072700
     35 H6          -6.0660    24.1950    12.7880 hc         1 O9H       0.072700
     36 H7          -4.6340    25.4790    10.4010 h1         1 O9H       0.044200
     37 H8          -5.9650    24.3080    10.2640 h1         1 O9H       0.044200
     38 H9          -3.5980    23.5210     9.0380 h1         1 O9H       0.060200
     39 H10         -2.7070    22.4120    10.0930 h1         1 O9H       0.060200
     40 H11         -1.2650    23.4270    12.0160 ha         1 O9H       0.118500
     41 H12          0.4650    25.1560    12.4650 ha         1 O9H       0.118500
     42 H13          0.6130    27.1810    11.0170 ha         1 O9H       0.107000
     43 H14         -0.9740    27.4720     9.1170 ha         1 O9H       0.118500
     44 H15         -2.7030    25.7470     8.6590 ha         1 O9H       0.118500
     45 H16         -4.2340    28.7320    15.5660 hc         1 O9H       0.099200
     46 H17         -3.3270    27.5560    16.4970 hc         1 O9H       0.099200
     47 H18         -1.9210    29.3010    17.4740 hx         1 O9H       0.103700
     48 H19         -1.7460    30.8210    15.6620 hn         1 O9H       0.502500
     49 H20         -2.2290    31.6280    16.9680 hn         1 O9H       0.502500
     50 H21         -3.3870    32.5110    15.0120 hx         1 O9H       0.103367
     51 H22         -4.0500    30.8910    14.6750 hx         1 O9H       0.103367
     52 H23         -4.5730    31.7820    16.1250 hx         1 O9H       0.103367
     53 H24         -4.8690    30.0740    17.6540 hc         1 O9H       0.072700
     54 H25         -4.2710    31.0480    19.9030 hc         1 O9H       0.057533
     55 H26         -2.5520    30.8150    19.5260 hc         1 O9H       0.057533
     56 H27         -3.5460    31.9370    18.5640 hc         1 O9H       0.057533
     57 H28         -4.8370    28.7120    19.7870 hc         1 O9H       0.057533
     58 H29         -4.6190    27.7340    18.3390 hc         1 O9H       0.057533
     59 H30         -3.2150    28.1310    19.3580 hc         1 O9H       0.057533
     60 H31          2.3580    28.1030    14.8500 hc         1 O9H       0.084367
     61 H32          1.4400    28.5960    16.3360 hc         1 O9H       0.084367
     62 H33          1.3790    26.9590    15.8650 hc         1 O9H       0.084367
@<TRIPOS>BOND
     1     1     5 1   
     2     1     8 1   
     3     1    30 1   
     4     2     3 2   
     5     2     8 1   
     6     2    31 1   
     7     4     5 1   
     8     4    19 1   
     9     4    26 1   
    10     4    32 1   
    11     5     6 1   
    12     5    33 1   
    13     6     7 1   
    14     7     8 2   
    15     7     9 1   
    16     9    10 1   
    17     9    34 1   
    18     9    35 1   
    19    10    11 1   
    20    10    36 1   
    21    10    37 1   
    22    11    12 1   
    23    12    13 1   
    24    12    38 1   
    25    12    39 1   
    26    13    14 ar  
    27    13    18 ar  
    28    14    15 ar  
    29    14    40 1   
    30    15    16 ar  
    31    15    41 1   
    32    16    17 ar  
    33    16    42 1   
    34    17    18 ar  
    35    17    43 1   
    36    18    44 1   
    37    19    20 1   
    38    19    45 1   
    39    19    46 1   
    40    20    21 1   
    41    20    23 1   
    42    20    47 1   
    43    21    22 1   
    44    21    48 1   
    45    21    49 1   
    46    22    50 1   
    47    22    51 1   
    48    22    52 1   
    49    23    24 1   
    50    23    25 1   
    51    23    53 1   
    52    24    54 1   
    53    24    55 1   
    54    24    56 1   
    55    25    57 1   
    56    25    58 1   
    57    25    59 1   
    58    26    27 1   
    59    27    28 2   
    60    27    29 1   
    61    29    60 1   
    62    29    61 1   
    63    29    62 1   
@<TRIPOS>SUBSTRUCTURE
     1 O9H         1 TEMP              0 ****  ****    0 ROOT
