@<TRIPOS>MOLECULE
O9H
   62    63     1     0     0
SMALL
abcg2


@<TRIPOS>ATOM
      1 N1          -2.9100    25.7750    14.4950 nu         1 O9H      -0.708200
      2 C5          -3.9700    23.5930    13.9880 c          1 O9H       0.598100
      3 O1          -3.2300    22.9670    14.7200 o          1 O9H      -0.495100
      4 C1          -2.2860    28.1970    14.7340 c3         1 O9H       0.168300
      5 C2          -2.7200    27.0400    13.8420 c5         1 O9H       0.319500
      6 S1          -4.3140    27.4350    12.9650 ss         1 O9H      -0.433600
      7 C3          -4.6830    25.7260    12.9590 c2         1 O9H       0.051400
      8 C4          -3.8770    25.0260    13.7860 ce         1 O9H      -0.064200
      9 C18         -5.7060    25.2350    11.9920 c3         1 O9H      -0.032200
     10 C19         -5.0680    24.9490    10.6360 c3         1 O9H       0.159600
     11 O4          -4.2450    23.8140    10.7450 os         1 O9H      -0.462000
     12 C20         -3.0980    23.8310     9.9200 c3         1 O9H       0.204900
     13 C21         -1.9580    24.5980    10.5390 ca         1 O9H      -0.128300
     14 C22         -1.2680    24.0550    11.6210 ca         1 O9H      -0.091500
     15 C23         -0.2070    24.7350    12.1990 ca         1 O9H      -0.112000
     16 C24          0.1760    25.9760    11.7030 ca         1 O9H      -0.121000
     17 C25         -0.5150    26.5350    10.6370 ca         1 O9H      -0.112000
     18 C26         -1.5760    25.8460    10.0590 ca         1 O9H      -0.091500
     19 C27         -3.1510    28.4020    15.9710 c3         1 O9H      -0.120400
     20 C28         -2.8240    29.6500    16.7850 c3         1 O9H       0.127300
     21 N3          -3.0920    30.9010    15.9800 ny         1 O9H      -0.823000
     22 C41         -4.4770    31.1090    15.4860 c3         1 O9H       0.071900
     23 C42         -3.5650    29.6950    18.1320 c3         1 O9H      -0.082700
     24 C43         -3.4150    31.0440    18.8360 c3         1 O9H      -0.108600
     25 C44         -3.0310    28.5950    19.0490 c3         1 O9H      -0.108600
     26 O7          -0.9570    27.9430    15.1910 os         1 O9H      -0.456100
     27 C45          0.0790    28.3960    14.4710 c          1 O9H       0.594100
     28 O8          -0.0480    29.0510    13.4710 o          1 O9H      -0.473000
     29 C46          1.3790    27.9640    15.0720 c3         1 O9H      -0.157100
     30 H1          -3.1430    25.8430    15.4800 hn         1 O9H       0.446000
     31 H2          -4.7790    23.0920    13.4370 h4         1 O9H       0.026200
     32 H3          -2.2910    29.0860    14.0980 h1         1 O9H       0.058700
     33 H4          -1.9890    26.9250    13.0390 h2         1 O9H       0.133700
     34 H5          -6.4780    25.9950    11.8580 hc         1 O9H       0.072700
     35 H6          -6.2100    24.3410    12.3610 hc         1 O9H       0.072700
     36 H7          -4.5060    25.8330    10.3110 h1         1 O9H       0.044200
     37 H8          -5.8590    24.7790     9.8960 h1         1 O9H       0.044200
     38 H9          -3.3270    24.2330     8.9260 h1         1 O9H       0.060200
     39 H10         -2.8070    22.7870     9.7850 h1         1 O9H       0.060200
     40 H11         -1.5530    23.0830    12.0070 ha         1 O9H       0.118500
     41 H12          0.3270    24.2960    13.0320 ha         1 O9H       0.118500
     42 H13          1.0110    26.5040    12.1450 ha         1 O9H       0.107000
     43 H14         -0.2260    27.5030    10.2490 ha         1 O9H       0.118500
     44 H15         -2.1040    26.2790     9.2170 ha         1 O9H       0.118500
     45 H16         -4.2060    28.3970    15.6880 hc         1 O9H       0.099200
     46 H17         -3.0220    27.5500    16.6380 hc         1 O9H       0.099200
     47 H18         -1.7500    29.6970    16.9850 hx         1 O9H       0.103700
     48 H19         -2.4520    30.9420    15.1860 hn         1 O9H       0.502500
     49 H20         -2.8180    31.7070    16.5450 hn         1 O9H       0.502500
     50 H21         -4.5270    32.0960    15.0380 hx         1 O9H       0.103367
     51 H22         -4.7130    30.3600    14.7380 hx         1 O9H       0.103367
     52 H23         -5.1760    31.0440    16.3120 hx         1 O9H       0.103367
     53 H24         -4.6290    29.5050    17.9550 hc         1 O9H       0.072700
     54 H25         -3.8370    30.9820    19.8390 hc         1 O9H       0.057533
     55 H26         -2.3630    31.3220    18.9410 hc         1 O9H       0.057533
     56 H27         -3.9400    31.8600    18.3380 hc         1 O9H       0.057533
     57 H28         -3.5210    28.6580    20.0200 hc         1 O9H       0.057533
     58 H29         -3.2120    27.5910    18.6660 hc         1 O9H       0.057533
     59 H30         -1.9570    28.7080    19.2090 hc         1 O9H       0.057533
     60 H31          2.2090    28.4380    14.5560 hc         1 O9H       0.084367
     61 H32          1.4230    28.2060    16.1330 hc         1 O9H       0.084367
     62 H33          1.4820    26.8810    14.9810 hc         1 O9H       0.084367
@<TRIPOS>BOND
     1     1     5 1   
     2     1     8 1   
     3     1    30 1   
     4     2     3 2   
     5     2     8 1   
     6     2    31 1   
     7     4     5 1   
     8     4    19 1   
     9     4    26 1   
    10     4    32 1   
    11     5     6 1   
    12     5    33 1   
    13     6     7 1   
    14     7     8 2   
    15     7     9 1   
    16     9    10 1   
    17     9    34 1   
    18     9    35 1   
    19    10    11 1   
    20    10    36 1   
    21    10    37 1   
    22    11    12 1   
    23    12    13 1   
    24    12    38 1   
    25    12    39 1   
    26    13    14 ar  
    27    13    18 ar  
    28    14    15 ar  
    29    14    40 1   
    30    15    16 ar  
    31    15    41 1   
    32    16    17 ar  
    33    16    42 1   
    34    17    18 ar  
    35    17    43 1   
    36    18    44 1   
    37    19    20 1   
    38    19    45 1   
    39    19    46 1   
    40    20    21 1   
    41    20    23 1   
    42    20    47 1   
    43    21    22 1   
    44    21    48 1   
    45    21    49 1   
    46    22    50 1   
    47    22    51 1   
    48    22    52 1   
    49    23    24 1   
    50    23    25 1   
    51    23    53 1   
    52    24    54 1   
    53    24    55 1   
    54    24    56 1   
    55    25    57 1   
    56    25    58 1   
    57    25    59 1   
    58    26    27 1   
    59    27    28 2   
    60    27    29 1   
    61    29    60 1   
    62    29    61 1   
    63    29    62 1   
@<TRIPOS>SUBSTRUCTURE
     1 O9H         1 TEMP              0 ****  ****    0 ROOT
