@<TRIPOS>MOLECULE
O9I
   58    61     1     0     0
SMALL
No Charge or Current Charge


@<TRIPOS>ATOM
      1 C1          20.0540   -45.4970    30.4310 ca         1 O9I      -0.149000
      2 C2          20.3480   -44.9900    29.1540 ca         1 O9I       0.000000
      3 C3          21.6960   -43.9840    31.4170 ca         1 O9I       0.027100
      4 C4          21.9890   -43.4700    30.1400 ca         1 O9I      -0.068000
      5 C5          21.3190   -43.9770    29.0030 ca         1 O9I      -0.275500
      6 C6          20.3040   -42.1460    27.1230 ca         1 O9I      -0.252500
      7 C7          19.1070   -42.5640    26.5070 ca         1 O9I      -0.018000
      8 C8          18.0300   -41.6700    26.3840 ca         1 O9I      -0.110500
      9 C9          18.1310   -40.3550    26.8790 ca         1 O9I      -0.041300
     10 C10         16.9300   -39.4190    26.8120 c3         1 O9I       0.243100
     11 C11         14.1330   -39.6940    28.4400 ca         1 O9I      -0.286500
     12 C15         13.7120   -41.9640    29.2050 ca         1 O9I      -0.177000
     13 C16         14.5310   -40.8100    29.2430 cp         1 O9I       0.063000
     14 C18         16.8310   -41.7340    29.6930 ca         1 O9I      -0.050500
     15 C19         18.0090   -41.8040    30.4550 ca         1 O9I      -0.181000
     16 C20         18.1350   -41.0420    31.6230 ca         1 O9I       0.157100
     17 C21         17.0790   -40.2160    32.0390 ca         1 O9I      -0.181000
     18 C22         15.9010   -40.1400    31.2750 ca         1 O9I      -0.050500
     19 C23         19.3370   -39.9370    27.4770 ca         1 O9I      -0.110500
     20 O8          21.4880   -44.4040    26.3890 o          1 O9I      -0.527500
     21 S           21.6610   -43.3110    27.3570 sy         1 O9I       1.027000
     22 O7          22.9150   -42.5460    27.4270 o          1 O9I      -0.527500
     23 O1          22.3490   -43.5080    32.5280 oh         1 O9I      -0.559100
     24 C           20.7260   -44.9970    31.5560 ca         1 O9I       0.179100
     25 O           20.4470   -45.4880    32.7960 oh         1 O9I      -0.525100
     26 C24         20.4170   -40.8270    27.6040 ca         1 O9I      -0.018000
     27 N           16.6820   -38.8260    28.1340 n7         1 O9I      -0.862300
     28 S1          15.1650   -38.2060    28.4170 sy         1 O9I       1.152600
     29 O2          15.2390   -37.6180    29.7540 o          1 O9I      -0.533000
     30 O6          14.8270   -37.3880    27.2490 o          1 O9I      -0.533000
     31 C14         12.5450   -42.0130    28.4260 ca         1 O9I       0.096100
     32 O4          11.7710   -43.1440    28.4170 oh         1 O9I      -0.549100
     33 C13         12.1700   -40.9010    27.6480 ca         1 O9I       0.108100
     34 O3          11.0350   -40.9580    26.8890 oh         1 O9I      -0.526100
     35 C12         12.9630   -39.7440    27.6510 ca         1 O9I      -0.033000
     36 C17         15.7700   -40.8770    30.0730 cp         1 O9I      -0.142000
     37 H1          19.3060   -46.2770    30.5480 ha         1 O9I       0.137000
     38 H2          19.8180   -45.3820    28.2880 ha         1 O9I       0.139000
     39 H4          22.7330   -42.6820    30.0310 ha         1 O9I       0.136000
     40 H5          18.9980   -43.5820    26.1370 ha         1 O9I       0.135000
     41 H6          17.1060   -42.0120    25.9220 ha         1 O9I       0.123500
     42 H7          17.1160   -38.6360    26.0630 h1         1 O9I       0.061200
     43 H8          16.0590   -39.9960    26.4710 h1         1 O9I       0.061200
     44 H13         14.0000   -42.8280    29.7990 ha         1 O9I       0.121000
     45 H14         16.7390   -42.3410    28.7940 ha         1 O9I       0.131000
     46 H15         18.8220   -42.4530    30.1400 ha         1 O9I       0.129500
     47 H17         17.1610   -39.6320    32.9530 ha         1 O9I       0.129500
     48 H18         15.0830   -39.5070    31.6130 ha         1 O9I       0.131000
     49 H19         19.4310   -38.9250    27.8650 ha         1 O9I       0.123500
     50 H3          22.9690   -42.7940    32.2590 ho         1 O9I       0.483000
     51 H           21.0290   -44.9870    33.4110 ho         1 O9I       0.491000
     52 H20         21.3310   -40.4900    28.0910 ha         1 O9I       0.135000
     53 H9          16.6730   -39.5890    28.8090 hn         1 O9I       0.491000
     54 H12         12.1780   -43.8090    29.0140 ho         1 O9I       0.483000
     55 H11         10.6480   -41.8500    27.0400 ho         1 O9I       0.485000
     56 H10         12.6650   -38.8950    27.0400 ha         1 O9I       0.163000
     57 H16         19.1880   -40.5270    33.1350 ho         1 O9I       0.472000
     58 O5          19.2800   -41.1150    32.3560 oh         1 O9I      -0.527100
@<TRIPOS>BOND
     1     1     2 ar  
     2     1    24 ar  
     3     1    37 1   
     4     2     5 ar  
     5     2    38 1   
     6     3     4 ar  
     7     3    23 1   
     8     3    24 ar  
     9     4     5 ar  
    10     4    39 1   
    11     5    21 1   
    12     6     7 ar  
    13     6    21 1   
    14     6    26 ar  
    15     7     8 ar  
    16     7    40 1   
    17     8     9 ar  
    18     8    41 1   
    19     9    10 1   
    20     9    19 ar  
    21    10    27 1   
    22    10    42 1   
    23    10    43 1   
    24    11    13 ar  
    25    11    28 1   
    26    11    35 ar  
    27    12    13 ar  
    28    12    31 ar  
    29    12    44 1   
    30    13    36 1   
    31    14    15 ar  
    32    14    36 ar  
    33    14    45 1   
    34    15    16 ar  
    35    15    46 1   
    36    16    17 ar  
    37    16    58 1   
    38    17    18 ar  
    39    17    47 1   
    40    18    36 ar  
    41    18    48 1   
    42    19    26 ar  
    43    19    49 1   
    44    20    21 2   
    45    21    22 2   
    46    23    50 1   
    47    24    25 1   
    48    25    51 1   
    49    26    52 1   
    50    27    28 1   
    51    27    53 1   
    52    28    29 2   
    53    28    30 2   
    54    31    32 1   
    55    31    33 ar  
    56    32    54 1   
    57    33    34 1   
    58    33    35 ar  
    59    34    55 1   
    60    35    56 1   
    61    57    58 1   
@<TRIPOS>SUBSTRUCTURE
     1 O9I         1 TEMP              0 ****  ****    0 ROOT
