@<TRIPOS>MOLECULE
O9I
   58    61     1     0     0
SMALL
abcg2


@<TRIPOS>ATOM
      1 C1          22.8880   -44.3000    31.4140 ca         1 O9I      -0.149000
      2 C2          22.3600   -44.5190    30.1510 ca         1 O9I       0.000000
      3 C3          24.1130   -42.3910    30.5870 ca         1 O9I       0.027100
      4 C4          23.5910   -42.6050    29.3250 ca         1 O9I      -0.068000
      5 C5          22.7160   -43.6680    29.1180 ca         1 O9I      -0.275500
      6 C6          20.5190   -43.0140    27.5220 ca         1 O9I      -0.252500
      7 C7          19.3180   -43.6860    27.6760 ca         1 O9I      -0.018000
      8 C8          18.1340   -42.9600    27.6690 ca         1 O9I      -0.110500
      9 C9          18.1490   -41.5800    27.5160 ca         1 O9I      -0.041300
     10 C10         16.8660   -40.7960    27.5180 c3         1 O9I       0.243100
     11 C11         14.1310   -39.2710    28.3630 ca         1 O9I      -0.286500
     12 C15         12.2410   -40.7200    28.4530 ca         1 O9I      -0.177000
     13 C16         13.5170   -40.3980    28.9110 cp         1 O9I       0.063000
     14 C18         14.4830   -42.6040    29.5250 ca         1 O9I      -0.050500
     15 C19         15.0410   -43.4950    30.4260 ca         1 O9I      -0.181000
     16 C20         15.2530   -43.1040    31.7470 ca         1 O9I       0.157100
     17 C21         14.8960   -41.8180    32.1430 ca         1 O9I      -0.181000
     18 C22         14.3480   -40.9310    31.2280 ca         1 O9I      -0.050500
     19 C23         19.3690   -40.9220    27.3750 ca         1 O9I      -0.110500
     20 O8          21.7150   -45.3450    27.3690 o          1 O9I      -0.527500
     21 S           22.0420   -43.9290    27.5070 sy         1 O9I       1.027000
     22 O7          22.9300   -43.3040    26.5310 o          1 O9I      -0.527500
     23 O1          24.9700   -41.3990    30.8990 oh         1 O9I      -0.559100
     24 C           23.7610   -43.2480    31.6450 ca         1 O9I       0.179100
     25 O           24.2550   -43.0750    32.8780 oh         1 O9I      -0.525100
     26 C24         20.5560   -41.6320    27.3640 ca         1 O9I      -0.018000
     27 N           16.7550   -40.0640    28.7740 n7         1 O9I      -0.862300
     28 S1          15.7620   -38.7520    28.8490 sy         1 O9I       1.152600
     29 O2          15.7460   -38.3320    30.2390 o          1 O9I      -0.533000
     30 O6          16.2290   -37.8110    27.8430 o          1 O9I      -0.533000
     31 C14         11.5880   -39.9550    27.5020 ca         1 O9I       0.096100
     32 O4          10.3550   -40.2230    27.0390 oh         1 O9I      -0.549100
     33 C13         12.2200   -38.8250    26.9630 ca         1 O9I       0.108100
     34 O3          11.6310   -38.0560    26.0310 oh         1 O9I      -0.526100
     35 C12         13.4900   -38.4980    27.3970 ca         1 O9I      -0.033000
     36 C17         14.1420   -41.3050    29.9030 cp         1 O9I      -0.142000
     37 H1          22.6260   -44.9570    32.2340 ha         1 O9I       0.137000
     38 H2          21.6820   -45.3450    29.9890 ha         1 O9I       0.139000
     39 H4          23.8720   -41.9470    28.5110 ha         1 O9I       0.136000
     40 H5          19.2910   -44.7600    27.7980 ha         1 O9I       0.135000
     41 H6          17.1910   -43.4800    27.7810 ha         1 O9I       0.123500
     42 H7          16.8740   -40.0790    26.6970 h1         1 O9I       0.061200
     43 H8          16.0160   -41.4670    27.3600 h1         1 O9I       0.061200
     44 H13         11.7450   -41.5940    28.8610 ha         1 O9I       0.121000
     45 H14         14.3220   -42.9260    28.5030 ha         1 O9I       0.131000
     46 H15         15.3090   -44.4940    30.1080 ha         1 O9I       0.129500
     47 H17         15.0390   -41.5040    33.1710 ha         1 O9I       0.129500
     48 H18         14.0640   -39.9430    31.5620 ha         1 O9I       0.131000
     49 H19         19.3910   -39.8460    27.2560 ha         1 O9I       0.123500
     50 H3          25.1750   -40.8470    30.1350 ho         1 O9I       0.483000
     51 H           24.8410   -42.3090    32.9130 ho         1 O9I       0.491000
     52 H20         21.4940   -41.1080    27.2330 ha         1 O9I       0.135000
     53 H9          16.6690   -40.6610    29.5910 hn         1 O9I       0.491000
     54 H12          9.9870   -41.0140    27.4510 ho         1 O9I       0.483000
     55 H11         10.7530   -38.3900    25.8120 ho         1 O9I       0.485000
     56 H10         13.9760   -37.6330    26.9670 ha         1 O9I       0.163000
     57 H16         15.8880   -43.6320    33.4710 ho         1 O9I       0.472000
     58 O5          15.7910   -44.0060    32.5880 oh         1 O9I      -0.527100
@<TRIPOS>BOND
     1     1     2 ar  
     2     1    24 ar  
     3     1    37 1   
     4     2     5 ar  
     5     2    38 1   
     6     3     4 ar  
     7     3    23 1   
     8     3    24 ar  
     9     4     5 ar  
    10     4    39 1   
    11     5    21 1   
    12     6     7 ar  
    13     6    21 1   
    14     6    26 ar  
    15     7     8 ar  
    16     7    40 1   
    17     8     9 ar  
    18     8    41 1   
    19     9    10 1   
    20     9    19 ar  
    21    10    27 1   
    22    10    42 1   
    23    10    43 1   
    24    11    13 ar  
    25    11    28 1   
    26    11    35 ar  
    27    12    13 ar  
    28    12    31 ar  
    29    12    44 1   
    30    13    36 1   
    31    14    15 ar  
    32    14    36 ar  
    33    14    45 1   
    34    15    16 ar  
    35    15    46 1   
    36    16    17 ar  
    37    16    58 1   
    38    17    18 ar  
    39    17    47 1   
    40    18    36 ar  
    41    18    48 1   
    42    19    26 ar  
    43    19    49 1   
    44    20    21 2   
    45    21    22 2   
    46    23    50 1   
    47    24    25 1   
    48    25    51 1   
    49    26    52 1   
    50    27    28 1   
    51    27    53 1   
    52    28    29 2   
    53    28    30 2   
    54    31    32 1   
    55    31    33 ar  
    56    32    54 1   
    57    33    34 1   
    58    33    35 ar  
    59    34    55 1   
    60    35    56 1   
    61    57    58 1   
@<TRIPOS>SUBSTRUCTURE
     1 O9I         1 TEMP              0 ****  ****    0 ROOT
