@<TRIPOS>MOLECULE
O9K
   39    39     1     0     0
SMALL
bcc


@<TRIPOS>ATOM
      1 N1          -2.9830    31.7720    16.4900 n7         1 O9K      -0.830200
      2 C4          -3.4680    29.3030    16.5330 c3         1 O9K      -0.114400
      3 C5          -2.9560    30.5510    17.2800 c3         1 O9K       0.192500
      4 C6          -3.7080    30.7300    18.6130 c3         1 O9K      -0.053700
      5 C7          -3.2910    32.0170    19.3190 c3         1 O9K      -0.084600
      6 C8          -3.4830    29.5390    19.5450 c3         1 O9K      -0.084600
      7 C22         -3.4240    27.8800    14.5020 cc         1 O9K       0.396700
      8 C24         -4.8670    26.3950    13.2600 cc         1 O9K      -0.167400
      9 O1          -0.9690    28.8980    13.2490 o          1 O9K      -0.533000
     10 C2           0.8110    28.4890    14.8190 c3         1 O9K      -0.155100
     11 O2          -1.4240    28.8130    15.4340 os         1 O9K      -0.407900
     12 C3          -2.8000    29.0640    15.1850 c3         1 O9K       0.128800
     13 C9          -4.2630    32.1630    15.9370 c3         1 O9K       0.154100
     14 N4          -3.0440    26.6610    14.6550 nd         1 O9K      -0.575000
     15 C23         -3.8480    25.8070    13.9510 cd         1 O9K       0.248800
     16 S1          -4.8120    28.0810    13.4790 ss         1 O9K      -0.135300
     17 C25         -3.6160    24.3610    13.9420 c          1 O9K       0.497400
     18 O5          -2.7070    23.8190    14.5230 o          1 O9K      -0.483100
     19 H1          -2.2820    31.7390    15.7630 hn         1 O9K       0.363800
     20 H3          -4.5450    29.3890    16.3630 hc         1 O9K       0.065200
     21 H4          -3.3290    28.4080    17.1430 hc         1 O9K       0.065200
     22 H5          -1.9030    30.3860    17.5360 h1         1 O9K       0.067700
     23 H6          -4.7830    30.7870    18.4040 hc         1 O9K       0.040700
     24 H7          -3.8020    32.1080    20.2790 hc         1 O9K       0.034867
     25 H8          -2.2160    32.0220    19.5160 hc         1 O9K       0.034867
     26 H9          -3.5220    32.9030    18.7300 hc         1 O9K       0.034867
     27 H10         -3.9560    29.7170    20.5110 hc         1 O9K       0.034867
     28 H11         -3.8960    28.6090    19.1550 hc         1 O9K       0.034867
     29 H12         -2.4160    29.3810    19.7250 hc         1 O9K       0.034867
     30 H13         -5.6160    25.9170    12.6460 h4         1 O9K       0.184000
     31 H14          1.4680    28.4220    13.9570 hc         1 O9K       0.073033
     32 H15          1.1610    29.2880    15.4740 hc         1 O9K       0.073033
     33 H16          0.8660    27.5590    15.3850 hc         1 O9K       0.073033
     34 H17         -2.9110    29.9440    14.5430 h1         1 O9K       0.064700
     35 H18         -4.1370    33.0880    15.3750 h1         1 O9K       0.026700
     36 H19         -4.7330    31.4340    15.2630 h1         1 O9K       0.026700
     37 H20         -4.9760    32.3700    16.7370 h1         1 O9K       0.026700
     38 H21         -4.3490    23.7900    13.3490 h4         1 O9K      -0.004800
     39 C1          -0.5970    28.7530    14.3840 c          1 O9K       0.650100
@<TRIPOS>BOND
     1     1     3 1   
     2     1    13 1   
     3     1    19 1   
     4     2     3 1   
     5     2    12 1   
     6     2    20 1   
     7     2    21 1   
     8     3     4 1   
     9     3    22 1   
    10     4     5 1   
    11     4     6 1   
    12     4    23 1   
    13     5    24 1   
    14     5    25 1   
    15     5    26 1   
    16     6    27 1   
    17     6    28 1   
    18     6    29 1   
    19     7    12 1   
    20     7    14 2   
    21     7    16 1   
    22     8    15 2   
    23     8    16 1   
    24     8    30 1   
    25     9    39 2   
    26    10    31 1   
    27    10    32 1   
    28    10    33 1   
    29    10    39 1   
    30    11    12 1   
    31    11    39 1   
    32    12    34 1   
    33    13    35 1   
    34    13    36 1   
    35    13    37 1   
    36    14    15 1   
    37    15    17 1   
    38    17    18 2   
    39    17    38 1   
@<TRIPOS>SUBSTRUCTURE
     1 O9K         1 TEMP              0 ****  ****    0 ROOT
