@<TRIPOS>MOLECULE
O9K
   39    39     1     0     0
SMALL
No Charge or Current Charge


@<TRIPOS>ATOM
      1 N1          -3.0520    31.7720    16.4540 n7         1 O9K      -0.885400
      2 C4          -3.4870    29.3030    16.5300 c3         1 O9K      -0.114400
      3 C5          -2.9650    30.5510    17.3030 c3         1 O9K       0.192500
      4 C6          -3.6600    30.7720    18.6940 c3         1 O9K      -0.053700
      5 C7          -3.1400    32.0410    19.4220 c3         1 O9K      -0.084600
      6 C8          -3.5240    29.5470    19.6370 c3         1 O9K      -0.084600
      7 C22         -3.4040    27.8300    14.4450 cc         1 O9K       0.396700
      8 C24         -4.5920    26.3080    12.9890 cc         1 O9K      -0.229000
      9 O1          -0.9130    28.9690    13.1400 o          1 O9K      -0.484000
     10 C2           0.8810    28.6180    14.7320 c3         1 O9K      -0.155100
     11 O2          -1.4050    28.8810    15.3840 os         1 O9K      -0.431100
     12 C3          -2.8250    29.0490    15.1520 c3         1 O9K       0.152000
     13 C9          -4.3860    32.2080    15.9810 c3         1 O9K       0.154100
     14 N4          -3.1780    26.5730    14.8190 nd         1 O9K      -0.575000
     15 C23         -3.8580    25.6860    13.9800 cd         1 O9K       0.183500
     16 S1          -4.4580    28.0410    13.0720 ss         1 O9K       0.009600
     17 C25         -3.8540    24.1890    14.0690 c          1 O9K       0.497400
     18 O5          -3.2380    23.5340    14.9080 o          1 O9K      -0.483100
     19 H1          -2.4420    31.6430    15.6380 hn         1 O9K       0.419000
     20 H3          -4.5730    29.3810    16.3980 hc         1 O9K       0.065200
     21 H4          -3.3190    28.4070    17.1380 hc         1 O9K       0.065200
     22 H5          -1.9030    30.3640    17.5210 h1         1 O9K       0.067700
     23 H6          -4.7330    30.9140    18.5230 hc         1 O9K       0.040700
     24 H7          -3.6300    32.1600    20.3950 hc         1 O9K       0.034867
     25 H8          -2.0580    31.9770    19.5900 hc         1 O9K       0.034867
     26 H9          -3.3450    32.9480    18.8420 hc         1 O9K       0.034867
     27 H10         -3.9430    29.7700    20.6260 hc         1 O9K       0.034867
     28 H11         -4.0700    28.6800    19.2480 hc         1 O9K       0.034867
     29 H12         -2.4720    29.2680    19.7680 hc         1 O9K       0.034867
     30 H13         -5.2030    25.8580    12.2170 h4         1 O9K       0.166000
     31 H14          1.5730    28.5900    13.8830 hc         1 O9K       0.073033
     32 H15          1.1560    29.3900    15.4590 hc         1 O9K       0.073033
     33 H16          0.9340    27.7040    15.3330 hc         1 O9K       0.073033
     34 H17         -3.0030    29.9230    14.5110 h1         1 O9K       0.064700
     35 H18         -4.2980    33.1400    15.4060 h1         1 O9K       0.026700
     36 H19         -4.8460    31.4550    15.3270 h1         1 O9K       0.026700
     37 H20         -5.0660    32.4000    16.8210 h1         1 O9K       0.026700
     38 H21         -4.4670    23.6740    13.2970 h4         1 O9K      -0.004800
     39 C1          -0.5610    28.8380    14.3050 c          1 O9K       0.601100
@<TRIPOS>BOND
     1     1     3 1   
     2     1    13 1   
     3     1    19 1   
     4     2     3 1   
     5     2    12 1   
     6     2    20 1   
     7     2    21 1   
     8     3     4 1   
     9     3    22 1   
    10     4     5 1   
    11     4     6 1   
    12     4    23 1   
    13     5    24 1   
    14     5    25 1   
    15     5    26 1   
    16     6    27 1   
    17     6    28 1   
    18     6    29 1   
    19     7    12 1   
    20     7    14 2   
    21     7    16 1   
    22     8    15 2   
    23     8    16 1   
    24     8    30 1   
    25     9    39 2   
    26    10    31 1   
    27    10    32 1   
    28    10    33 1   
    29    10    39 1   
    30    11    12 1   
    31    11    39 1   
    32    12    34 1   
    33    13    35 1   
    34    13    36 1   
    35    13    37 1   
    36    14    15 1   
    37    15    17 1   
    38    17    18 2   
    39    17    38 1   
@<TRIPOS>SUBSTRUCTURE
     1 O9K         1 TEMP              0 ****  ****    0 ROOT
