@<TRIPOS>MOLECULE
O9L
   40    44     1     0     0
SMALL
No Charge or Current Charge


@<TRIPOS>ATOM
      1 N1           8.2620     0.1600    27.4820 nc         1 O9L      -0.567100
      2 C2           9.6910    -0.2050    24.9120 ca         1 O9L       0.384900
      3 N3          11.1850     4.2830    32.3880 nh         1 O9L      -0.764300
      4 C4           9.4430     0.7410    27.1950 cd         1 O9L       0.586200
      5 N4          10.1380     2.9000    30.8130 nb         1 O9L      -0.719000
      6 C5           8.0430     0.6480    28.7740 ca         1 O9L       0.081400
      7 C6           6.9560     0.3910    29.6170 ca         1 O9L      -0.062000
      8 C17         11.4330     1.2530    25.7460 ca         1 O9L      -0.037000
      9 C           12.0940     1.0660    24.5220 ca         1 O9L      -0.174000
     10 C3          10.1990     0.6000    25.9470 ca         1 O9L      -0.176900
     11 N           10.3290    -0.3860    23.7290 nb         1 O9L      -0.669000
     12 C1          11.5120     0.2430    23.5450 ca         1 O9L       0.355900
     13 O            9.9520     1.5290    28.1900 os         1 O9L      -0.241700
     14 C16          9.0590     1.4690    29.1960 ca         1 O9L       0.023100
     15 C15          9.0990     2.0960    30.4530 ca         1 O9L       0.314000
     16 C8           7.9860     1.8400    31.3310 ca         1 O9L       0.190000
     17 C7           6.9360     0.9920    30.8940 ca         1 O9L      -0.071000
     18 C10         10.0790     3.4510    32.0480 ca         1 O9L       0.571900
     19 C9           8.9670     3.1980    32.9170 ca         1 O9L       0.275900
     20 N2           7.9210     2.3970    32.5690 nb         1 O9L      -0.604000
     21 C14         11.6680     4.4020    33.7970 c6         1 O9L       0.211800
     22 C13         12.8110     3.3920    34.0810 c6         1 O9L       0.028600
     23 S           14.2980     3.6080    32.9840 ss         1 O9L      -0.433000
     24 C12         13.4120     3.7400    31.3540 c6         1 O9L       0.028600
     25 C11         12.2040     4.7110    31.3790 c6         1 O9L       0.211800
     26 H2           6.1460    -0.2580    29.2930 ha         1 O9L       0.141000
     27 H3          11.8730     1.8890    26.5130 ha         1 O9L       0.135000
     28 H4          13.0470     1.5500    24.3250 ha         1 O9L       0.129000
     29 H5          12.0050     0.0830    22.5870 h4         1 O9L       0.023100
     30 H6           6.0970     0.8010    31.5580 ha         1 O9L       0.137000
     31 H7           8.9050     3.6530    33.9030 h4         1 O9L       0.030100
     32 H8          12.0380     5.4210    33.9820 h1         1 O9L       0.072950
     33 H9          10.8590     4.2390    34.5220 h1         1 O9L       0.072950
     34 H10         13.1380     3.4890    35.1260 h1         1 O9L       0.080700
     35 H11         12.4320     2.3700    33.9430 h1         1 O9L       0.080700
     36 H12         13.0620     2.7370    31.0720 h1         1 O9L       0.080700
     37 H13         14.1350     4.0680    30.5930 h1         1 O9L       0.080700
     38 H14         12.5670     5.7210    31.6180 h1         1 O9L       0.072950
     39 H15         11.7690     4.7830    30.3710 h1         1 O9L       0.072950
     40 H1           8.7410    -0.7290    25.0210 h4         1 O9L       0.044100
@<TRIPOS>BOND
     1     1     4 2   
     2     1     6 1   
     3     2    10 ar  
     4     2    11 ar  
     5     2    40 1   
     6     3    18 1   
     7     3    21 1   
     8     3    25 1   
     9     4    10 1   
    10     4    13 1   
    11     5    15 ar  
    12     5    18 ar  
    13     6     7 ar  
    14     6    14 ar  
    15     7    17 ar  
    16     7    26 1   
    17     8     9 ar  
    18     8    10 ar  
    19     8    27 1   
    20     9    12 ar  
    21     9    28 1   
    22    11    12 ar  
    23    12    29 1   
    24    13    14 1   
    25    14    15 ar  
    26    15    16 ar  
    27    16    17 ar  
    28    16    20 ar  
    29    17    30 1   
    30    18    19 ar  
    31    19    20 ar  
    32    19    31 1   
    33    21    22 1   
    34    21    32 1   
    35    21    33 1   
    36    22    23 1   
    37    22    34 1   
    38    22    35 1   
    39    23    24 1   
    40    24    25 1   
    41    24    36 1   
    42    24    37 1   
    43    25    38 1   
    44    25    39 1   
@<TRIPOS>SUBSTRUCTURE
     1 O9L         1 TEMP              0 ****  ****    0 ROOT
