@<TRIPOS>MOLECULE
O9L
   40    44     1     0     0
SMALL
abcg2


@<TRIPOS>ATOM
      1 N1           8.3320     0.2120    27.4970 nc         1 O9L      -0.567100
      2 C2           9.6830    -0.2230    24.9280 ca         1 O9L       0.384900
      3 N3          11.2100     4.2990    32.2930 nh         1 O9L      -0.764300
      4 C4           9.4390     0.7860    27.1600 cd         1 O9L       0.586200
      5 N4          10.2230     2.9170    30.7410 nb         1 O9L      -0.719000
      6 C5           8.0900     0.6470    28.7810 ca         1 O9L       0.081400
      7 C6           7.0380     0.3530    29.6700 ca         1 O9L      -0.062000
      8 C17         11.3110     1.3830    25.6290 ca         1 O9L      -0.037000
      9 C           11.9350     1.1960    24.4090 ca         1 O9L      -0.174000
     10 C3          10.1540     0.6580    25.9040 ca         1 O9L      -0.176900
     11 N           10.2810    -0.4030    23.7630 nb         1 O9L      -0.669000
     12 C1          11.3850     0.2940    23.5110 ca         1 O9L       0.355900
     13 O            9.9710     1.5810    28.1100 os         1 O9L      -0.241700
     14 C16          9.1120     1.4950    29.1490 ca         1 O9L       0.023100
     15 C15          9.2040     2.1120    30.4020 ca         1 O9L       0.314000
     16 C8           8.1460     1.8000    31.2840 ca         1 O9L       0.190000
     17 C7           7.0850     0.9360    30.9090 ca         1 O9L      -0.071000
     18 C10         10.2170     3.4380    31.9480 ca         1 O9L       0.571900
     19 C9           9.1400     3.1220    32.8560 ca         1 O9L       0.275900
     20 N2           8.1600     2.3440    32.5270 nb         1 O9L      -0.604000
     21 C14         11.5560     4.5660    33.6790 c6         1 O9L       0.211800
     22 C13         12.5540     3.5470    34.2100 c6         1 O9L       0.028600
     23 S           14.1070     3.5790    33.2700 ss         1 O9L      -0.433000
     24 C12         13.4240     3.4820    31.5880 c6         1 O9L       0.028600
     25 C11         12.3180     4.5060    31.3740 c6         1 O9L       0.211800
     26 H2           6.2330    -0.3080    29.3830 ha         1 O9L       0.141000
     27 H3          11.7220     2.0820    26.3460 ha         1 O9L       0.135000
     28 H4          12.8340     1.7400    24.1550 ha         1 O9L       0.129000
     29 H5          11.8530     0.1270    22.5480 h4         1 O9L       0.023100
     30 H6           6.3080     0.7470    31.6380 ha         1 O9L       0.137000
     31 H7           9.1090     3.5360    33.8550 h4         1 O9L       0.030100
     32 H8          11.9850     5.5680    33.7320 h1         1 O9L       0.072950
     33 H9          10.6690     4.5790    34.3090 h1         1 O9L       0.072950
     34 H10         12.8160     3.7790    35.2420 h1         1 O9L       0.080700
     35 H11         12.1230     2.5430    34.1920 h1         1 O9L       0.080700
     36 H12         13.0580     2.4740    31.3870 h1         1 O9L       0.080700
     37 H13         14.2550     3.6780    30.9100 h1         1 O9L       0.080700
     38 H14         12.7070     5.5120    31.5430 h1         1 O9L       0.072950
     39 H15         11.9570     4.4560    30.3500 h1         1 O9L       0.072950
     40 H1           8.7860    -0.8020    25.1110 h4         1 O9L       0.044100
@<TRIPOS>BOND
     1     1     4 2   
     2     1     6 1   
     3     2    10 ar  
     4     2    11 ar  
     5     2    40 1   
     6     3    18 1   
     7     3    21 1   
     8     3    25 1   
     9     4    10 1   
    10     4    13 1   
    11     5    15 ar  
    12     5    18 ar  
    13     6     7 ar  
    14     6    14 ar  
    15     7    17 ar  
    16     7    26 1   
    17     8     9 ar  
    18     8    10 ar  
    19     8    27 1   
    20     9    12 ar  
    21     9    28 1   
    22    11    12 ar  
    23    12    29 1   
    24    13    14 1   
    25    14    15 ar  
    26    15    16 ar  
    27    16    17 ar  
    28    16    20 ar  
    29    17    30 1   
    30    18    19 ar  
    31    19    20 ar  
    32    19    31 1   
    33    21    22 1   
    34    21    32 1   
    35    21    33 1   
    36    22    23 1   
    37    22    34 1   
    38    22    35 1   
    39    23    24 1   
    40    24    25 1   
    41    24    36 1   
    42    24    37 1   
    43    25    38 1   
    44    25    39 1   
@<TRIPOS>SUBSTRUCTURE
     1 O9L         1 TEMP              0 ****  ****    0 ROOT
