@<TRIPOS>MOLECULE
O9M
   42    44     1     0     0
SMALL
abcg2


@<TRIPOS>ATOM
      1 C13          4.2740     3.4060     0.4070 ca         1 O9M       0.117900
      2 C15         -0.2950    -2.2300     0.3510 c          1 O9M       0.643700
      3 C22         -3.1730     0.8220     0.0100 ca         1 O9M      -0.318500
      4 C24         -3.6520     2.4400    -1.6820 ca         1 O9M      -0.128000
      5 C26         -1.9400     2.8690    -0.0410 ca         1 O9M      -0.128000
      6 C01          4.5780    -2.9440    -0.5770 c3         1 O9M      -0.041800
      7 C02          3.4490    -2.0160    -0.2460 ca         1 O9M      -0.135300
      8 C03          2.1540    -2.4900    -0.1050 ca         1 O9M       0.238000
      9 C05          1.0750    -1.6660     0.1770 ca         1 O9M      -0.214600
     10 C06          1.3080    -0.3060     0.3360 ca         1 O9M      -0.024000
     11 C07          2.5920     0.2130     0.2210 cp         1 O9M      -0.174500
     12 C08          3.6450    -0.6520    -0.0730 ca         1 O9M      -0.024000
     13 C09          2.8270     1.6610     0.4040 cp         1 O9M       0.197500
     14 C11          1.9930     3.7140     0.8730 ca         1 O9M       0.117900
     15 C12          3.2490     4.2790     0.7280 ca         1 O9M      -0.220000
     16 C23         -3.9100     1.2070    -1.1040 ca         1 O9M      -0.017000
     17 C25         -2.6690     3.2670    -1.1530 ca         1 O9M      -0.057000
     18 C27         -2.1900     1.6410     0.5530 ca         1 O9M      -0.017000
     19 N10          1.7780     2.4170     0.7130 nb         1 O9M      -0.183000
     20 N14          4.0690     2.1070     0.2450 nb         1 O9M      -0.183000
     21 N17         -1.2360    -1.5200    -0.3310 ns         1 O9M      -0.382300
     22 N18         -2.5580    -1.8380    -0.2280 n7         1 O9M      -0.576300
     23 O16         -0.5410    -3.1960     1.0350 o          1 O9M      -0.506100
     24 O20         -2.8680    -0.7990     2.0350 o          1 O9M      -0.514000
     25 O21         -4.8360    -1.1720     0.4970 o          1 O9M      -0.514000
     26 S19         -3.4570    -0.7750     0.7120 sy         1 O9M       1.128600
     27 H1           5.2900     3.7600     0.2760 h4         1 O9M       0.026600
     28 H2          -4.2210     2.7550    -2.5460 ha         1 O9M       0.121000
     29 H3          -1.1800     3.5160     0.3740 ha         1 O9M       0.121000
     30 H4           4.4260    -3.4330    -1.5400 hc         1 O9M       0.052033
     31 H5           5.5170    -2.3970    -0.6280 hc         1 O9M       0.052033
     32 H6           4.6870    -3.7280     0.1720 hc         1 O9M       0.052033
     33 H7           0.4910     0.3620     0.5750 ha         1 O9M       0.141000
     34 H8           4.6460    -0.2530    -0.1710 ha         1 O9M       0.142000
     35 H9           1.1340     4.3260     1.1260 h4         1 O9M       0.026600
     36 H10          3.4180     5.3370     0.8580 ha         1 O9M       0.139000
     37 H11         -4.6760     0.5650    -1.5170 ha         1 O9M       0.139500
     38 H12         -2.4720     4.2290    -1.6080 ha         1 O9M       0.117000
     39 H13         -1.6380     1.3430     1.4330 ha         1 O9M       0.139500
     40 H14         -0.9580    -0.8250    -1.0120 hn         1 O9M       0.325500
     41 H15         -2.9960    -2.0780    -1.1130 hn         1 O9M       0.476000
     42 F04          1.9400    -3.7970    -0.2850 f          1 O9M      -0.155000
@<TRIPOS>BOND
     1     1    15 ar  
     2     1    20 ar  
     3     1    27 1   
     4     2     9 1   
     5     2    21 1   
     6     2    23 2   
     7     3    16 ar  
     8     3    18 ar  
     9     3    26 1   
    10     4    16 ar  
    11     4    17 ar  
    12     4    28 1   
    13     5    17 ar  
    14     5    18 ar  
    15     5    29 1   
    16     6     7 1   
    17     6    30 1   
    18     6    31 1   
    19     6    32 1   
    20     7     8 ar  
    21     7    12 ar  
    22     8     9 ar  
    23     8    42 1   
    24     9    10 ar  
    25    10    11 ar  
    26    10    33 1   
    27    11    12 ar  
    28    11    13 1   
    29    12    34 1   
    30    13    19 ar  
    31    13    20 ar  
    32    14    15 ar  
    33    14    19 ar  
    34    14    35 1   
    35    15    36 1   
    36    16    37 1   
    37    17    38 1   
    38    18    39 1   
    39    21    22 1   
    40    21    40 1   
    41    22    26 1   
    42    22    41 1   
    43    24    26 2   
    44    25    26 2   
@<TRIPOS>SUBSTRUCTURE
     1 O9M         1 TEMP              0 ****  ****    0 ROOT
