@<TRIPOS>MOLECULE
O9M
   42    44     1     0     0
SMALL
No Charge or Current Charge


@<TRIPOS>ATOM
      1 C13          3.8330     3.7260    -0.9890 ca         1 O9M       0.117900
      2 C15         -0.5480    -2.1610     0.0140 c          1 O9M       0.643700
      3 C22         -2.9450     0.5740     0.4380 ca         1 O9M      -0.318500
      4 C24         -1.7860     2.6990     0.1400 ca         1 O9M      -0.128000
      5 C26         -1.4350     1.4010     2.1670 ca         1 O9M      -0.128000
      6 C01          4.4720    -2.5540     0.6970 c3         1 O9M      -0.041800
      7 C02          3.2480    -1.7240     0.3190 ca         1 O9M      -0.135300
      8 C03          1.9640    -2.3020     0.3330 ca         1 O9M       0.238000
      9 C05          0.8300    -1.5460    -0.0260 ca         1 O9M      -0.214600
     10 C06          1.0030    -0.1890    -0.3880 ca         1 O9M      -0.024000
     11 C07          2.2840     0.4260    -0.4080 cp         1 O9M      -0.174500
     12 C08          3.4000    -0.3750    -0.0480 ca         1 O9M      -0.024000
     13 C09          2.4520     1.8790    -0.7860 cp         1 O9M       0.197500
     14 C11          1.5070     3.8470    -1.5560 ca         1 O9M       0.117900
     15 C12          2.7500     4.4900    -1.4500 ca         1 O9M      -0.220000
     16 C23         -2.6710     1.7190    -0.3410 ca         1 O9M      -0.017000
     17 C25         -1.1650     2.5410     1.3900 ca         1 O9M      -0.057000
     18 C27         -2.3250     0.4200     1.6970 ca         1 O9M      -0.017000
     19 N10          1.3620     2.5490    -1.2260 nb         1 O9M      -0.183000
     20 N14          3.6830     2.4270    -0.6600 nb         1 O9M      -0.183000
     21 N17         -1.4900    -1.5750    -0.8270 ns         1 O9M      -0.382300
     22 N18         -2.9160    -1.8390    -0.7540 n7         1 O9M      -0.576300
     23 O16         -0.8480    -3.0700     0.7760 o          1 O9M      -0.506100
     24 O20         -4.7390    -1.3570     0.9380 o          1 O9M      -0.514000
     25 O21         -4.7460    -0.2080    -1.3680 o          1 O9M      -0.514000
     26 S19         -4.0460    -0.7180    -0.1850 sy         1 O9M       1.128600
     27 H1           4.8290     4.1530    -0.8820 h4         1 O9M       0.026600
     28 H2          -1.5760     3.5810    -0.4610 ha         1 O9M       0.121000
     29 H3          -0.9530     1.2770     3.1330 ha         1 O9M       0.121000
     30 H4           4.5970    -3.4030     0.0140 hc         1 O9M       0.052033
     31 H5           5.3960    -1.9640     0.6590 hc         1 O9M       0.052033
     32 H6           4.3790    -2.9520     1.7140 hc         1 O9M       0.052033
     33 H7           0.1290     0.4140    -0.6240 ha         1 O9M       0.141000
     34 H8           4.4010     0.0510    -0.0520 ha         1 O9M       0.142000
     35 H9           0.6200     4.3720    -1.9070 h4         1 O9M       0.026600
     36 H10          2.8700     5.5370    -1.7160 ha         1 O9M       0.139000
     37 H11         -3.1340     1.8540    -1.3170 ha         1 O9M       0.139500
     38 H12         -0.4750     3.2980     1.7560 ha         1 O9M       0.117000
     39 H13         -2.5190    -0.4640     2.3040 ha         1 O9M       0.139500
     40 H14         -1.1310    -0.8480    -1.4410 hn         1 O9M       0.325500
     41 H15         -3.3340    -2.2540    -1.5920 hn         1 O9M       0.476000
     42 F04          1.8440    -3.6080     0.6660 f          1 O9M      -0.155000
@<TRIPOS>BOND
     1     1    15 ar  
     2     1    20 ar  
     3     1    27 1   
     4     2     9 1   
     5     2    21 1   
     6     2    23 2   
     7     3    16 ar  
     8     3    18 ar  
     9     3    26 1   
    10     4    16 ar  
    11     4    17 ar  
    12     4    28 1   
    13     5    17 ar  
    14     5    18 ar  
    15     5    29 1   
    16     6     7 1   
    17     6    30 1   
    18     6    31 1   
    19     6    32 1   
    20     7     8 ar  
    21     7    12 ar  
    22     8     9 ar  
    23     8    42 1   
    24     9    10 ar  
    25    10    11 ar  
    26    10    33 1   
    27    11    12 ar  
    28    11    13 1   
    29    12    34 1   
    30    13    19 ar  
    31    13    20 ar  
    32    14    15 ar  
    33    14    19 ar  
    34    14    35 1   
    35    15    36 1   
    36    16    37 1   
    37    17    38 1   
    38    18    39 1   
    39    21    22 1   
    40    21    40 1   
    41    22    26 1   
    42    22    41 1   
    43    24    26 2   
    44    25    26 2   
@<TRIPOS>SUBSTRUCTURE
     1 O9M         1 TEMP              0 ****  ****    0 ROOT
