@<TRIPOS>MOLECULE
O9N
   34    34     1     0     0
SMALL
bcc


@<TRIPOS>ATOM
      1 C26         -4.4760    22.1780    12.9910 c3         1 O9N       0.179500
      2 C28         -6.8760    22.5920    13.6620 ca         1 O9N      -0.080300
      3 N5          -4.3600    23.5610    12.5440 n8         1 O9N      -0.901800
      4 C27         -5.9370    21.7260    12.8710 c3         1 O9N      -0.029100
      5 C29         -7.6060    23.6100    13.0520 ca         1 O9N      -0.123500
      6 C30         -8.4420    24.4330    13.7960 ca         1 O9N      -0.130500
      7 C31         -8.5570    24.2540    15.1680 ca         1 O9N      -0.130000
      8 C32         -7.8340    23.2420    15.7880 ca         1 O9N      -0.130500
      9 C33         -7.0030    22.4210    15.0400 ca         1 O9N      -0.123500
     10 C34         -3.5780    21.2850    12.1310 c3         1 O9N      -0.081400
     11 C35         -2.1280    21.1620    12.6370 c3         1 O9N       0.108500
     12 N6          -1.5310    22.4620    12.8960 n8         1 O9N      -0.873800
     13 C44         -1.3710    20.3720    11.5870 c          1 O9N       0.633100
     14 O8          -1.4950    19.1800    11.4500 o          1 O9N      -0.539000
     15 O9          -0.6030    21.1230    10.8160 os         1 O9N      -0.395900
     16 C45          0.1080    20.4720     9.7620 c3         1 O9N       0.124700
     17 H1          -4.1840    22.0460    14.0470 h1         1 O9N       0.006700
     18 H2          -4.7670    24.1830    13.2320 hn         1 O9N       0.352800
     19 H3          -3.3820    23.8130    12.4710 hn         1 O9N       0.352800
     20 H5          -6.2200    21.7350    11.8140 hc         1 O9N       0.053700
     21 H6          -6.0090    20.6910    13.2160 hc         1 O9N       0.053700
     22 H7          -7.5230    23.7560    11.9810 ha         1 O9N       0.131500
     23 H8          -9.0030    25.2160    13.3020 ha         1 O9N       0.129000
     24 H9          -9.2080    24.8940    15.7490 ha         1 O9N       0.129000
     25 H10         -7.9210    23.0910    16.8570 ha         1 O9N       0.129000
     26 H11         -6.4450    21.6320    15.5320 ha         1 O9N       0.131500
     27 H12         -3.5900    21.6790    11.1090 hc         1 O9N       0.068700
     28 H13         -3.9940    20.2770    12.0900 hc         1 O9N       0.068700
     29 H14         -2.1480    20.5230    13.5300 h1         1 O9N       0.046700
     30 H15         -1.9170    22.8230    13.7600 hn         1 O9N       0.345300
     31 H16         -0.5400    22.3630    13.0780 hn         1 O9N       0.345300
     32 H18          0.6710    21.2510     9.2560 h1         1 O9N       0.049367
     33 H19          0.7970    19.7220    10.1500 h1         1 O9N       0.049367
     34 H20         -0.5740    20.0000     9.0550 h1         1 O9N       0.049367
@<TRIPOS>BOND
     1     1     3 1   
     2     1     4 1   
     3     1    10 1   
     4     1    17 1   
     5     2     4 1   
     6     2     5 ar  
     7     2     9 ar  
     8     3    18 1   
     9     3    19 1   
    10     4    20 1   
    11     4    21 1   
    12     5     6 ar  
    13     5    22 1   
    14     6     7 ar  
    15     6    23 1   
    16     7     8 ar  
    17     7    24 1   
    18     8     9 ar  
    19     8    25 1   
    20     9    26 1   
    21    10    11 1   
    22    10    27 1   
    23    10    28 1   
    24    11    12 1   
    25    11    13 1   
    26    11    29 1   
    27    12    30 1   
    28    12    31 1   
    29    13    14 2   
    30    13    15 1   
    31    15    16 1   
    32    16    32 1   
    33    16    33 1   
    34    16    34 1   
@<TRIPOS>SUBSTRUCTURE
     1 O9N         1 TEMP              0 ****  ****    0 ROOT
