@<TRIPOS>MOLECULE
O9N
   34    34     1     0     0
SMALL
No Charge or Current Charge


@<TRIPOS>ATOM
      1 C26         -4.4260    22.3270    12.9820 c3         1 O9N       0.179500
      2 C28         -6.9170    22.7580    13.4930 ca         1 O9N      -0.080300
      3 N5          -4.0830    23.7560    12.9380 n8         1 O9N      -1.012200
      4 C27         -5.9020    22.1010    12.5570 c3         1 O9N      -0.029100
      5 C29         -7.6760    23.8650    13.0640 ca         1 O9N      -0.105500
      6 C30         -8.6140    24.4600    13.9250 ca         1 O9N      -0.112500
      7 C31         -8.8020    23.9500    15.2210 ca         1 O9N      -0.112000
      8 C32         -8.0510    22.8450    15.6540 ca         1 O9N      -0.112500
      9 C33         -7.1130    22.2500    14.7930 ca         1 O9N      -0.105500
     10 C34         -3.4230    21.5270    12.1100 c3         1 O9N      -0.081400
     11 C35         -1.9890    21.3510    12.6990 c3         1 O9N       0.108500
     12 N6          -1.3200    22.6690    12.9980 n8         1 O9N      -0.984200
     13 C44         -1.1450    20.3680    11.8050 c          1 O9N       0.584100
     14 O8          -0.5630    19.3850    12.2480 o          1 O9N      -0.490000
     15 O9          -1.0680    20.7780    10.4940 os         1 O9N      -0.419100
     16 C45         -0.3000    19.9790     9.5770 c3         1 O9N       0.147900
     17 H1          -4.3060    21.9870    14.0190 h1         1 O9N       0.006700
     18 H2          -4.2760    24.1700    13.8560 hn         1 O9N       0.408000
     19 H3          -3.0580    23.8020    12.8480 hn         1 O9N       0.408000
     20 H5          -6.0380    22.4580    11.5290 hc         1 O9N       0.053700
     21 H6          -6.0990    21.0230    12.5270 hc         1 O9N       0.053700
     22 H7          -7.5360    24.2680    12.0630 ha         1 O9N       0.113500
     23 H8          -9.1950    25.3160    13.5880 ha         1 O9N       0.111000
     24 H9          -9.5290    24.4100    15.8870 ha         1 O9N       0.111000
     25 H10         -8.1970    22.4480    16.6570 ha         1 O9N       0.111000
     26 H11         -6.5380    21.3920    15.1360 ha         1 O9N       0.113500
     27 H12         -3.3620    21.9870    11.1160 hc         1 O9N       0.068700
     28 H13         -3.8330    20.5220    11.9510 hc         1 O9N       0.068700
     29 H14         -2.0910    20.8300    13.6610 h1         1 O9N       0.046700
     30 H15         -1.6030    22.9770    13.9360 hn         1 O9N       0.400500
     31 H16         -0.3100    22.5140    13.1120 hn         1 O9N       0.400500
     32 H18         -0.3280    20.4180     8.5720 h1         1 O9N       0.049367
     33 H19          0.7490    19.9190     9.8920 h1         1 O9N       0.049367
     34 H20         -0.7030    18.9590     9.5130 h1         1 O9N       0.049367
@<TRIPOS>BOND
     1     1     3 1   
     2     1     4 1   
     3     1    10 1   
     4     1    17 1   
     5     2     4 1   
     6     2     5 ar  
     7     2     9 ar  
     8     3    18 1   
     9     3    19 1   
    10     4    20 1   
    11     4    21 1   
    12     5     6 ar  
    13     5    22 1   
    14     6     7 ar  
    15     6    23 1   
    16     7     8 ar  
    17     7    24 1   
    18     8     9 ar  
    19     8    25 1   
    20     9    26 1   
    21    10    11 1   
    22    10    27 1   
    23    10    28 1   
    24    11    12 1   
    25    11    13 1   
    26    11    29 1   
    27    12    30 1   
    28    12    31 1   
    29    13    14 2   
    30    13    15 1   
    31    15    16 1   
    32    16    32 1   
    33    16    33 1   
    34    16    34 1   
@<TRIPOS>SUBSTRUCTURE
     1 O9N         1 TEMP              0 ****  ****    0 ROOT
