@<TRIPOS>MOLECULE
O9O
   48    51     1     0     0
SMALL
No Charge or Current Charge


@<TRIPOS>ATOM
      1 N1           6.7150     2.3930    17.6420 nb         1 O9O      -0.660000
      2 C4          14.4590     2.7310    22.2360 ca         1 O9O      -0.265000
      3 C5          13.6660     3.3440    23.2220 ca         1 O9O       0.620300
      4 C6          12.4230     1.3760    23.8530 ca         1 O9O       0.132100
      5 C7          12.5230     0.3220    24.7710 ca         1 O9O      -0.135000
      6 C8          11.9110    -0.9060    24.4890 ca         1 O9O       0.158000
      7 C10         11.0810    -0.0300    22.3650 ca         1 O9O       0.001000
      8 C13          7.8970     0.6520    18.8780 ca         1 O9O      -0.113300
      9 C15          5.6710     2.2460    18.4870 ca         1 O9O       0.370900
     10 C17          4.5460     1.2300    20.4010 ca         1 O9O      -0.076000
     11 C20          6.7880    -0.4110    20.8390 ca         1 O9O      -0.111000
     12 C21          6.7980     0.5070    19.7630 ca         1 O9O       0.006000
     13 C22         11.6930     1.2090    22.6590 ca         1 O9O      -0.140000
     14 O2          10.6900     1.5480    19.8070 o          1 O9O      -0.555100
     15 C11         10.1450     0.4720    20.0270 c          1 O9O       0.600100
     16 C12          9.1930    -0.1610    19.0020 c3         1 O9O      -0.101100
     17 C19          5.6680    -0.5040    21.6830 ca         1 O9O      -0.083000
     18 C18          4.5490     0.3140    21.4650 ca         1 O9O      -0.112000
     19 C16          5.6660     1.3270    19.5530 ca         1 O9O      -0.099000
     20 C14          7.7980     1.6110    17.8450 ca         1 O9O       0.345900
     21 N           10.3320    -0.2750    21.1830 ns         1 O9O      -0.153000
     22 C9          11.1960    -1.0820    23.2940 ca         1 O9O      -0.168000
     23 O1          13.0190     2.5770    24.1590 os         1 O9O      -0.362400
     24 C3          15.1230     3.5260    21.2950 ca         1 O9O      -0.016000
     25 C2          14.9650     4.9140    21.3950 ca         1 O9O      -0.217000
     26 N2          13.5290     4.6770    23.3210 nb         1 O9O      -0.772000
     27 C1          14.1670     5.4450    22.4170 ca         1 O9O       0.617300
     28 O           14.0460     6.8140    22.4800 os         1 O9O      -0.466300
     29 C           13.2430     7.4480    23.4970 c3         1 O9O       0.159900
     30 H2          13.0750     0.4560    25.6970 ha         1 O9O       0.150000
     31 H3           4.8110     2.8890    18.3020 h4         1 O9O       0.021100
     32 H4           3.6750     1.8620    20.2380 ha         1 O9O       0.118000
     33 H5           7.6330    -1.0610    21.0370 ha         1 O9O       0.111000
     34 H6          11.6000     2.0520    21.9840 ha         1 O9O       0.172000
     35 H7           8.9740    -1.2010    19.2680 hc         1 O9O       0.068200
     36 H8           9.7080    -0.1700    18.0340 hc         1 O9O       0.068200
     37 H9           5.6690    -1.2130    22.5080 ha         1 O9O       0.116000
     38 H10          3.6840     0.2390    22.1210 ha         1 O9O       0.119000
     39 H11          8.6240     1.7590    17.1490 h4         1 O9O       0.018100
     40 H12          9.8380    -1.1570    21.1900 hn         1 O9O       0.152000
     41 H13         10.7270    -2.0420    23.0920 ha         1 O9O       0.129000
     42 H14         15.7430     3.0840    20.5160 ha         1 O9O       0.121000
     43 H15         15.4560     5.5800    20.6940 ha         1 O9O       0.140000
     44 H16         13.2720     8.5390    23.3810 h1         1 O9O       0.050033
     45 H17         12.1960     7.1270    23.4260 h1         1 O9O       0.050033
     46 H18         13.6160     7.2040    24.5000 h1         1 O9O       0.050033
     47 Cl          12.0380    -2.2330    25.6360 cl         1 O9O      -0.198000
     48 H1          14.5610     1.6500    22.2060 ha         1 O9O       0.136000
@<TRIPOS>BOND
     1     1     9 ar  
     2     1    20 ar  
     3     2     3 ar  
     4     2    24 ar  
     5     2    48 1   
     6     3    23 1   
     7     3    26 ar  
     8     4     5 ar  
     9     4    13 ar  
    10     4    23 1   
    11     5     6 ar  
    12     5    30 1   
    13     6    22 ar  
    14     6    47 1   
    15     7    13 ar  
    16     7    21 1   
    17     7    22 ar  
    18     8    12 ar  
    19     8    16 1   
    20     8    20 ar  
    21     9    19 ar  
    22     9    31 1   
    23    10    18 ar  
    24    10    19 ar  
    25    10    32 1   
    26    11    12 ar  
    27    11    17 ar  
    28    11    33 1   
    29    12    19 ar  
    30    13    34 1   
    31    14    15 2   
    32    15    16 1   
    33    15    21 1   
    34    16    35 1   
    35    16    36 1   
    36    17    18 ar  
    37    17    37 1   
    38    18    38 1   
    39    20    39 1   
    40    21    40 1   
    41    22    41 1   
    42    24    25 ar  
    43    24    42 1   
    44    25    27 ar  
    45    25    43 1   
    46    26    27 ar  
    47    27    28 1   
    48    28    29 1   
    49    29    44 1   
    50    29    45 1   
    51    29    46 1   
@<TRIPOS>SUBSTRUCTURE
     1 O9O         1 TEMP              0 ****  ****    0 ROOT
