@<TRIPOS>MOLECULE
O9O
   48    51     1     0     0
SMALL
abcg2


@<TRIPOS>ATOM
      1 N1           6.3220     1.3150    17.0670 nb         1 O9O      -0.660000
      2 C4          14.3900     3.0110    22.1540 ca         1 O9O      -0.265000
      3 C5          13.5700     3.5980    23.1080 ca         1 O9O       0.620300
      4 C6          12.3410     1.5960    23.4410 ca         1 O9O       0.132100
      5 C7          12.9890     0.6260    24.1890 ca         1 O9O      -0.135000
      6 C8          12.7040    -0.7000    23.8890 ca         1 O9O       0.158000
      7 C10         11.1740    -0.0500    22.1540 ca         1 O9O       0.001000
      8 C13          7.5100     0.1640    18.8320 ca         1 O9O      -0.113300
      9 C15          5.3090     1.5060    17.8780 ca         1 O9O       0.370900
     10 C17          4.1670     1.2890    20.0620 ca         1 O9O      -0.076000
     11 C20          6.3980    -0.0810    21.0650 ca         1 O9O      -0.111000
     12 C21          6.4170     0.3640    19.7220 ca         1 O9O       0.006000
     13 C22         11.4400     1.2930    22.4340 ca         1 O9O      -0.140000
     14 O2           9.6170     1.5050    20.2170 o          1 O9O      -0.555100
     15 C11          9.5790     0.2840    20.2640 c          1 O9O       0.600100
     16 C12          8.7580    -0.5420    19.2760 c3         1 O9O      -0.101100
     17 C19          5.3050     0.1580    21.8600 ca         1 O9O      -0.083000
     18 C18          4.1790     0.8470    21.3600 ca         1 O9O      -0.112000
     19 C16          5.2810     1.0590    19.2210 ca         1 O9O      -0.099000
     20 C14          7.4040     0.6490    17.5530 ca         1 O9O       0.345900
     21 N           10.2780    -0.4680    21.1630 ns         1 O9O      -0.153000
     22 C9          11.8150    -1.0530    22.8910 ca         1 O9O      -0.168000
     23 O1          12.5620     2.9310    23.7500 os         1 O9O      -0.362400
     24 C3          15.3760     3.8190    21.5890 ca         1 O9O      -0.016000
     25 C2          15.5080     5.1380    21.9770 ca         1 O9O      -0.217000
     26 N2          13.6740     4.8640    23.4980 nb         1 O9O      -0.772000
     27 C1          14.6170     5.6120    22.9470 ca         1 O9O       0.617300
     28 O           14.7450     6.8990    23.3230 os         1 O9O      -0.466300
     29 C           13.8350     7.4080    24.3080 c3         1 O9O       0.159900
     30 H2          13.6870     0.8980    24.9660 ha         1 O9O       0.150000
     31 H3           4.4480     2.0410    17.4860 h4         1 O9O       0.021100
     32 H4           3.3110     1.8190    19.6630 ha         1 O9O       0.118000
     33 H5           7.2470    -0.6140    21.4710 ha         1 O9O       0.111000
     34 H6          10.9610     2.0820    21.8810 ha         1 O9O       0.172000
     35 H7           8.5250    -1.5190    19.7030 hc         1 O9O       0.068200
     36 H8           9.4040    -0.7190    18.4120 hc         1 O9O       0.068200
     37 H9           5.3030    -0.1870    22.8870 ha         1 O9O       0.116000
     38 H10          3.3290     1.0230    22.0060 ha         1 O9O       0.119000
     39 H11          8.2230     0.5100    16.8560 h4         1 O9O       0.018100
     40 H12         10.1550    -1.4670    21.0910 hn         1 O9O       0.152000
     41 H13         11.6140    -2.0950    22.6820 ha         1 O9O       0.129000
     42 H14         16.0410     3.4060    20.8410 ha         1 O9O       0.121000
     43 H15         16.2600     5.7930    21.5600 ha         1 O9O       0.140000
     44 H16         14.1170     8.4480    24.4480 h1         1 O9O       0.050033
     45 H17         12.8060     7.3400    23.9540 h1         1 O9O       0.050033
     46 H18         13.9320     6.8600    25.2450 h1         1 O9O       0.050033
     47 CL          13.4970    -1.9630    24.8010 cl         1 O9O      -0.198000
     48 H1          14.2740     1.9790    21.8630 ha         1 O9O       0.136000
@<TRIPOS>BOND
     1     1     9 ar  
     2     1    20 ar  
     3     2     3 ar  
     4     2    24 ar  
     5     2    48 1   
     6     3    23 1   
     7     3    26 ar  
     8     4     5 ar  
     9     4    13 ar  
    10     4    23 1   
    11     5     6 ar  
    12     5    30 1   
    13     6    22 ar  
    14     6    47 1   
    15     7    13 ar  
    16     7    21 1   
    17     7    22 ar  
    18     8    12 ar  
    19     8    16 1   
    20     8    20 ar  
    21     9    19 ar  
    22     9    31 1   
    23    10    18 ar  
    24    10    19 ar  
    25    10    32 1   
    26    11    12 ar  
    27    11    17 ar  
    28    11    33 1   
    29    12    19 ar  
    30    13    34 1   
    31    14    15 2   
    32    15    16 1   
    33    15    21 1   
    34    16    35 1   
    35    16    36 1   
    36    17    18 ar  
    37    17    37 1   
    38    18    38 1   
    39    20    39 1   
    40    21    40 1   
    41    22    41 1   
    42    24    25 ar  
    43    24    42 1   
    44    25    27 ar  
    45    25    43 1   
    46    26    27 ar  
    47    27    28 1   
    48    28    29 1   
    49    29    44 1   
    50    29    45 1   
    51    29    46 1   
@<TRIPOS>SUBSTRUCTURE
     1 O9O         1 TEMP              0 ****  ****    0 ROOT
