@<TRIPOS>MOLECULE
O9P
   42    43     1     0     0
SMALL
bcc


@<TRIPOS>ATOM
      1 C10          1.3900     4.5110     0.7260 c2         1 O9P      -0.174200
      2 C13          0.5570    -2.0390     0.2090 c          1 O9P       0.705700
      3 C20         -2.9270     0.1820     0.0310 ca         1 O9P      -0.310500
      4 C21         -3.5640     0.4970    -1.1630 ca         1 O9P      -0.038000
      5 C22         -3.5760     1.8160    -1.5870 ca         1 O9P      -0.150500
      6 C24         -2.3390     2.4740     0.3740 ca         1 O9P      -0.150500
      7 C01          5.4750    -1.2960    -0.3930 c3         1 O9P      -0.045800
      8 C02          4.1060    -0.7440    -0.1370 ca         1 O9P      -0.081300
      9 C03          3.0000    -1.5840    -0.0830 ca         1 O9P       0.148900
     10 C05          1.7200    -1.1080     0.1240 ca         1 O9P      -0.159600
     11 C06          1.5260     0.2650     0.2920 ca         1 O9P      -0.184000
     12 C07          2.6100     1.1290     0.2540 ca         1 O9P       0.130100
     13 C09          1.2310     3.0350     0.5840 c3         1 O9P       0.169600
     14 C11          0.7970     5.3840    -0.0780 c2         1 O9P      -0.194000
     15 C12          3.8900     0.6130     0.0400 ca         1 O9P      -0.121000
     16 C23         -2.9640     2.8020    -0.8210 ca         1 O9P      -0.074000
     17 C25         -2.3130     1.1570     0.8090 ca         1 O9P      -0.038000
     18 N15         -0.5240    -1.5770    -0.4810 ns         1 O9P      -0.452300
     19 N16         -1.7180    -2.2350    -0.4330 n7         1 O9P      -0.521100
     20 O08          2.5200     2.4640     0.4080 os         1 O9P      -0.312900
     21 O14          0.5650    -3.0710     0.8380 o          1 O9P      -0.501100
     22 O18         -2.3450    -1.5410     1.9010 o          1 O9P      -0.582800
     23 O19         -4.1140    -2.1780     0.2170 o          1 O9P      -0.582800
     24 S17         -2.8710    -1.5090     0.5510 sy         1 O9P       1.266200
     25 H1           1.9950     4.8570     1.5570 ha         1 O9P       0.137000
     26 H2          -4.0490    -0.2660    -1.7580 ha         1 O9P       0.155500
     27 H3          -4.0670     2.0760    -2.5140 ha         1 O9P       0.139500
     28 H4          -1.8770     3.2450     0.9770 ha         1 O9P       0.139500
     29 H5           5.5340    -1.7680    -1.3750 hc         1 O9P       0.053033
     30 H6           6.2210    -0.5050    -0.3580 hc         1 O9P       0.053033
     31 H7           5.7500    -2.0490     0.3450 hc         1 O9P       0.053033
     32 H8           0.5250     0.6310     0.4780 ha         1 O9P       0.140000
     33 H9           0.7630     2.6260     1.4880 h1         1 O9P       0.039200
     34 H10          0.5810     2.7990    -0.2670 h1         1 O9P       0.039200
     35 H11          0.8990     6.4500     0.0740 ha         1 O9P       0.116500
     36 H12          0.1880     5.0670    -0.9170 ha         1 O9P       0.116500
     37 H13          4.7310     1.2940     0.0090 ha         1 O9P       0.153000
     38 H14         -2.9810     3.8300    -1.1550 ha         1 O9P       0.137000
     39 H15         -1.8340     0.8990     1.7440 ha         1 O9P       0.155500
     40 H16         -0.4290    -0.8000    -1.1200 hn         1 O9P       0.323500
     41 H17         -2.0710    -2.5250    -1.3400 hn         1 O9P       0.422800
     42 F04          3.1920    -2.8970    -0.2760 f          1 O9P      -0.123900
@<TRIPOS>BOND
     1     1    13 1   
     2     1    14 2   
     3     1    25 1   
     4     2    10 1   
     5     2    18 1   
     6     2    21 2   
     7     3     4 ar  
     8     3    17 ar  
     9     3    24 1   
    10     4     5 ar  
    11     4    26 1   
    12     5    16 ar  
    13     5    27 1   
    14     6    16 ar  
    15     6    17 ar  
    16     6    28 1   
    17     7     8 1   
    18     7    29 1   
    19     7    30 1   
    20     7    31 1   
    21     8     9 ar  
    22     8    15 ar  
    23     9    10 ar  
    24     9    42 1   
    25    10    11 ar  
    26    11    12 ar  
    27    11    32 1   
    28    12    15 ar  
    29    12    20 1   
    30    13    20 1   
    31    13    33 1   
    32    13    34 1   
    33    14    35 1   
    34    14    36 1   
    35    15    37 1   
    36    16    38 1   
    37    17    39 1   
    38    18    19 1   
    39    18    40 1   
    40    19    24 1   
    41    19    41 1   
    42    22    24 2   
    43    23    24 2   
@<TRIPOS>SUBSTRUCTURE
     1 O9P         1 TEMP              0 ****  ****    0 ROOT
