@<TRIPOS>MOLECULE
O9P
   42    43     1     0     0
SMALL
No Charge or Current Charge


@<TRIPOS>ATOM
      1 C10          1.1770     4.6780    -1.3680 c2         1 O9P      -0.224200
      2 C13          0.3410    -1.9300     0.0180 c          1 O9P       0.638700
      3 C20         -2.7950    -0.0540     0.5930 ca         1 O9P      -0.310500
      4 C21         -2.8700     1.1600    -0.1250 ca         1 O9P      -0.020000
      5 C22         -2.3370     2.3370     0.4300 ca         1 O9P      -0.132500
      6 C24         -1.6430     1.1000     2.4070 ca         1 O9P      -0.132500
      7 C01          5.3120    -0.9620     0.5780 c3         1 O9P      -0.045800
      8 C02          3.9010    -0.4900     0.2400 ca         1 O9P      -0.081300
      9 C03          2.8140    -1.3880     0.2870 ca         1 O9P       0.184000
     10 C05          1.5040    -0.9610    -0.0370 ca         1 O9P      -0.159600
     11 C06          1.3030     0.3980    -0.3980 ca         1 O9P      -0.166000
     12 C07          2.3890     1.2990    -0.4420 ca         1 O9P       0.130100
     13 C09          0.9570     3.2160    -1.0440 c3         1 O9P       0.192800
     14 C11          0.4770     5.3920    -2.2650 c2         1 O9P      -0.294000
     15 C12          3.6790     0.8490    -0.1280 ca         1 O9P      -0.103000
     16 C23         -1.7230     2.3080     1.6940 ca         1 O9P      -0.056000
     17 C25         -2.1790    -0.0790     1.8620 ca         1 O9P      -0.020000
     18 N15         -0.7540    -1.5930    -0.7730 ns         1 O9P      -0.385300
     19 N16         -2.0340    -2.2780    -0.7250 n7         1 O9P      -0.576300
     20 O08          2.2400     2.6290    -0.7800 os         1 O9P      -0.336100
     21 O14          0.3260    -2.9180     0.7410 o          1 O9P      -0.501100
     22 O18         -3.9200    -2.4610     0.9560 o          1 O9P      -0.512000
     23 O19         -4.2690    -1.2420    -1.2870 o          1 O9P      -0.512000
     24 S17         -3.4500    -1.5810    -0.1190 sy         1 O9P       1.124600
     25 H1           1.9800     5.1440    -0.7930 ha         1 O9P       0.187000
     26 H2          -3.3360     1.1990    -1.1080 ha         1 O9P       0.137500
     27 H3          -2.3980     3.2720    -0.1220 ha         1 O9P       0.121500
     28 H4          -1.1650     1.0770     3.3830 ha         1 O9P       0.121500
     29 H5           5.6380    -1.7500    -0.1110 hc         1 O9P       0.053033
     30 H6           6.0420    -0.1470     0.5160 hc         1 O9P       0.053033
     31 H7           5.3570    -1.3670     1.5960 hc         1 O9P       0.053033
     32 H8           0.3000     0.7540    -0.6150 ha         1 O9P       0.122000
     33 H9           0.3080     3.1300    -0.1630 h1         1 O9P       0.039200
     34 H10          0.4680     2.7150    -1.8900 h1         1 O9P       0.039200
     35 H11          0.6890     6.4470    -2.4470 ha         1 O9P       0.166500
     36 H12         -0.3320     4.9490    -2.8490 ha         1 O9P       0.166500
     37 H13          4.5080     1.5510    -0.1670 ha         1 O9P       0.135000
     38 H14         -1.3090     3.2200     2.1190 ha         1 O9P       0.119000
     39 H15         -2.1040    -1.0110     2.4210 ha         1 O9P       0.137500
     40 H16         -0.6330    -0.7610    -1.3460 hn         1 O9P       0.323500
     41 H17         -2.3100    -2.7610    -1.5840 hn         1 O9P       0.478000
     42 F04          3.0550    -2.6790     0.6180 f          1 O9P      -0.159000
@<TRIPOS>BOND
     1     1    13 1   
     2     1    14 2   
     3     1    25 1   
     4     2    10 1   
     5     2    18 1   
     6     2    21 2   
     7     3     4 ar  
     8     3    17 ar  
     9     3    24 1   
    10     4     5 ar  
    11     4    26 1   
    12     5    16 ar  
    13     5    27 1   
    14     6    16 ar  
    15     6    17 ar  
    16     6    28 1   
    17     7     8 1   
    18     7    29 1   
    19     7    30 1   
    20     7    31 1   
    21     8     9 ar  
    22     8    15 ar  
    23     9    10 ar  
    24     9    42 1   
    25    10    11 ar  
    26    11    12 ar  
    27    11    32 1   
    28    12    15 ar  
    29    12    20 1   
    30    13    20 1   
    31    13    33 1   
    32    13    34 1   
    33    14    35 1   
    34    14    36 1   
    35    15    37 1   
    36    16    38 1   
    37    17    39 1   
    38    18    19 1   
    39    18    40 1   
    40    19    24 1   
    41    19    41 1   
    42    22    24 2   
    43    23    24 2   
@<TRIPOS>SUBSTRUCTURE
     1 O9P         1 TEMP              0 ****  ****    0 ROOT
