@<TRIPOS>MOLECULE
O9Q
   32    34     1     0     0
SMALL
No Charge or Current Charge


@<TRIPOS>ATOM
      1 C4          37.4410    36.6290    33.3600 ca         1 O9Q       0.289100
      2 C5          37.6150    36.0010    32.1170 ca         1 O9Q      -0.381600
      3 C6          38.3080    36.6750    31.1030 ca         1 O9Q       0.238100
      4 C7          37.0910    34.6410    31.8320 c          1 O9Q       0.615900
      5 C8          37.3530    34.1280    30.4970 cc         1 O9Q      -0.383200
      6 C10         38.3610    34.4140    28.1590 ca         1 O9Q      -0.076800
      7 C13         38.9760    33.5990    25.5130 ca         1 O9Q      -0.086000
      8 C15         39.0820    35.2640    27.2850 ca         1 O9Q      -0.070000
      9 C1          38.8190    37.9580    31.3270 ca         1 O9Q      -0.237000
     10 C2          38.6400    38.5740    32.5680 ca         1 O9Q       0.242100
     11 C3          37.9510    37.9100    33.5860 ca         1 O9Q      -0.309000
     12 C9          38.0420    34.8460    29.5440 cd         1 O9Q       0.221900
     13 O1          38.4990    36.0950    29.8740 os         1 O9Q      -0.214200
     14 O2          36.4780    33.9990    32.6740 o          1 O9Q      -0.601100
     15 O3          36.7750    36.0020    34.3600 oh         1 O9Q      -0.540100
     16 O4          39.1390    39.8190    32.7800 oh         1 O9Q      -0.521100
     17 C11         37.9550    33.1480    27.6740 ca         1 O9Q      -0.077000
     18 C12         38.2570    32.7390    26.3610 ca         1 O9Q      -0.079300
     19 C14         39.3860    34.8570    25.9750 ca         1 O9Q      -0.116000
     20 C16         37.8110    31.3710    25.8660 c3         1 O9Q      -0.048800
     21 H1          36.9600    33.1380    30.3170 ha         1 O9Q       0.218000
     22 H2          39.2180    33.2920    24.4970 ha         1 O9Q       0.116000
     23 H3          39.4150    36.2460    27.6110 ha         1 O9Q       0.129000
     24 H4          39.3550    38.4740    30.5360 ha         1 O9Q       0.151000
     25 H5          37.8060    38.3790    34.5550 ha         1 O9Q       0.137000
     26 H6          36.5100    35.1250    33.9820 ho         1 O9Q       0.526000
     27 H7          38.9160    40.0800    33.6980 ho         1 O9Q       0.477000
     28 H8          37.4020    32.4630    28.3100 ha         1 O9Q       0.121000
     29 H9          39.9420    35.5210    25.3170 ha         1 O9Q       0.119000
     30 H10         38.5220    30.5950    26.1740 hc         1 O9Q       0.046367
     31 H11         36.8270    31.1030    26.2690 hc         1 O9Q       0.046367
     32 H12         37.7370    31.3420    24.7730 hc         1 O9Q       0.046367
@<TRIPOS>BOND
     1     1     2 ar  
     2     1    11 ar  
     3     1    15 1   
     4     2     3 ar  
     5     2     4 1   
     6     3     9 ar  
     7     3    13 1   
     8     4     5 1   
     9     4    14 2   
    10     5    12 2   
    11     5    21 1   
    12     6     8 ar  
    13     6    12 1   
    14     6    17 ar  
    15     7    18 ar  
    16     7    19 ar  
    17     7    22 1   
    18     8    19 ar  
    19     8    23 1   
    20     9    10 ar  
    21     9    24 1   
    22    10    11 ar  
    23    10    16 1   
    24    11    25 1   
    25    12    13 1   
    26    15    26 1   
    27    16    27 1   
    28    17    18 ar  
    29    17    28 1   
    30    18    20 1   
    31    19    29 1   
    32    20    30 1   
    33    20    31 1   
    34    20    32 1   
@<TRIPOS>SUBSTRUCTURE
     1 O9Q         1 TEMP              0 ****  ****    0 ROOT
