@<TRIPOS>MOLECULE
O9Q
   32    34     1     0     0
SMALL
bcc


@<TRIPOS>ATOM
      1 C4          37.3690    36.6170    33.2810 ca         1 O9Q       0.289100
      2 C5          37.5160    36.0020    32.0160 ca         1 O9Q      -0.381600
      3 C6          38.3600    36.6100    31.0850 ca         1 O9Q       0.238100
      4 C7          36.8230    34.7800    31.6790 c          1 O9Q       0.615900
      5 C8          37.0700    34.2820    30.3520 cc         1 O9Q      -0.333200
      6 C10         38.2400    34.5040    28.1460 ca         1 O9Q      -0.076800
      7 C13         38.8200    33.6800    25.5560 ca         1 O9Q      -0.104000
      8 C15         38.7040    35.4280    27.2080 ca         1 O9Q      -0.088000
      9 C1          39.0500    37.7750    31.3480 ca         1 O9Q      -0.255000
     10 C2          38.8880    38.3550    32.6040 ca         1 O9Q       0.242100
     11 C3          38.0540    37.7850    33.5690 ca         1 O9Q      -0.327000
     12 C9          37.9130    34.9250    29.5130 cd         1 O9Q       0.221900
     13 O1          38.5400    36.0550    29.8660 os         1 O9Q      -0.214200
     14 O2          36.0650    34.2110    32.4820 o          1 O9Q      -0.601100
     15 O3          36.5760    36.0790    34.2000 oh         1 O9Q      -0.501100
     16 O4          39.5680    39.4800    32.8430 oh         1 O9Q      -0.482100
     17 C11         38.0820    33.1690    27.7710 ca         1 O9Q      -0.095000
     18 C12         38.3700    32.7400    26.4810 ca         1 O9Q      -0.079300
     19 C14         38.9850    35.0090    25.9180 ca         1 O9Q      -0.134000
     20 C16         38.2320    31.2930    26.1100 c3         1 O9Q      -0.048800
     21 H1          36.5580    33.3890    30.0250 ha         1 O9Q       0.168000
     22 H2          39.0470    33.3690    24.5440 ha         1 O9Q       0.134000
     23 H3          38.8300    36.4710    27.4660 ha         1 O9Q       0.147000
     24 H4          39.7010    38.2220    30.6080 ha         1 O9Q       0.169000
     25 H5          37.9400    38.2470    34.5440 ha         1 O9Q       0.155000
     26 H6          36.1870    35.2580    33.8100 ho         1 O9Q       0.487000
     27 H7          39.4110    39.7930    33.7420 ho         1 O9Q       0.438000
     28 H8          37.7480    32.4400    28.5000 ha         1 O9Q       0.139000
     29 H9          39.3320    35.7280    25.1860 ha         1 O9Q       0.137000
     30 H10         39.1540    30.7480    26.3240 hc         1 O9Q       0.046367
     31 H11         37.4320    30.8110    26.6710 hc         1 O9Q       0.046367
     32 H12         38.0230    31.1720    25.0470 hc         1 O9Q       0.046367
@<TRIPOS>BOND
     1     1     2 ar  
     2     1    11 ar  
     3     1    15 1   
     4     2     3 ar  
     5     2     4 1   
     6     3     9 ar  
     7     3    13 1   
     8     4     5 1   
     9     4    14 2   
    10     5    12 2   
    11     5    21 1   
    12     6     8 ar  
    13     6    12 1   
    14     6    17 ar  
    15     7    18 ar  
    16     7    19 ar  
    17     7    22 1   
    18     8    19 ar  
    19     8    23 1   
    20     9    10 ar  
    21     9    24 1   
    22    10    11 ar  
    23    10    16 1   
    24    11    25 1   
    25    12    13 1   
    26    15    26 1   
    27    16    27 1   
    28    17    18 ar  
    29    17    28 1   
    30    18    20 1   
    31    19    29 1   
    32    20    30 1   
    33    20    31 1   
    34    20    32 1   
@<TRIPOS>SUBSTRUCTURE
     1 O9Q         1 TEMP              0 ****  ****    0 ROOT
