@<TRIPOS>MOLECULE
O9R
   57    60     1     0     0
SMALL
abcg2


@<TRIPOS>ATOM
      1 O7          22.4130   -43.3110    26.8090 o          1 O9R      -0.524500
      2 S           21.6320   -43.6610    27.9910 sy         1 O9R       1.015000
      3 O6          21.2830   -45.0570    28.2330 o          1 O9R      -0.524500
      4 C4          22.4820   -43.0450    29.4250 ca         1 O9R      -0.215500
      5 C3          22.1600   -43.5640    30.6690 ca         1 O9R      -0.054000
      6 C2          22.8180   -43.0500    31.7780 ca         1 O9R      -0.091000
      7 C1          23.7680   -42.0520    31.6440 ca         1 O9R      -0.096000
      8 C24         23.4320   -42.0480    29.2580 ca         1 O9R      -0.121000
      9 C           24.0810   -41.5450    30.3830 ca         1 O9R       0.129100
     10 O           25.0130   -40.5820    30.3120 oh         1 O9R      -0.531100
     11 C5          20.1320   -42.7120    27.9670 ca         1 O9R      -0.253500
     12 C23         20.1560   -41.4220    27.4480 ca         1 O9R      -0.017000
     13 C22         18.9870   -40.6840    27.4320 ca         1 O9R      -0.111000
     14 C8          17.7960   -41.2280    27.9090 ca         1 O9R      -0.039300
     15 C7          17.7950   -42.5190    28.4220 ca         1 O9R      -0.111000
     16 C6          18.9620   -43.2700    28.4570 ca         1 O9R      -0.017000
     17 C9          16.5300   -40.4160    27.8780 c3         1 O9R       0.237100
     18 N           16.5470   -39.4540    28.9780 n7         1 O9R      -0.851300
     19 S1          15.4710   -38.2010    28.9260 sy         1 O9R       1.147600
     20 O1          15.5350   -37.5600    30.2270 o          1 O9R      -0.531500
     21 O5          15.7900   -37.4210    27.7410 o          1 O9R      -0.531500
     22 C10         13.8630   -38.9140    28.6560 ca         1 O9R      -0.289500
     23 C15         13.3530   -39.9160    29.4830 cp         1 O9R       0.064000
     24 C14         12.1170   -40.4590    29.1440 ca         1 O9R      -0.177000
     25 C13         11.4040   -40.0290    28.0360 ca         1 O9R       0.097100
     26 O3          10.2090   -40.5210    27.6700 oh         1 O9R      -0.549100
     27 C12         11.9300   -39.0180    27.2200 ca         1 O9R       0.106100
     28 O2          11.2790   -38.5660    26.1340 oh         1 O9R      -0.526100
     29 C11         13.1610   -38.4770    27.5350 ca         1 O9R      -0.033000
     30 C16         14.0620   -40.4650    30.6640 cp         1 O9R      -0.145000
     31 C21         14.1860   -39.7440    31.8480 ca         1 O9R      -0.045000
     32 C20         14.8280   -40.2850    32.9500 ca         1 O9R      -0.181500
     33 C19         15.3690   -41.5670    32.8870 ca         1 O9R       0.158100
     34 O4          16.0130   -42.1410    33.9190 oh         1 O9R      -0.528100
     35 C18         15.2370   -42.3060    31.7130 ca         1 O9R      -0.181500
     36 C17         14.5800   -41.7590    30.6250 ca         1 O9R      -0.045000
     37 H3          21.4200   -44.3440    30.7830 ha         1 O9R       0.136000
     38 H2          22.5890   -43.4350    32.7620 ha         1 O9R       0.121000
     39 H1          24.2740   -41.6590    32.5160 ha         1 O9R       0.133000
     40 H20         23.6700   -41.6660    28.2730 ha         1 O9R       0.137000
     41 H           25.1450   -40.2930    29.4010 ho         1 O9R       0.472000
     42 H19         21.0690   -40.9930    27.0580 ha         1 O9R       0.136500
     43 H18         18.9960   -39.6790    27.0290 ha         1 O9R       0.123000
     44 H5          16.8740   -42.9520    28.7930 ha         1 O9R       0.123000
     45 H4          18.9480   -44.2730    28.8600 ha         1 O9R       0.136500
     46 H6          16.4730   -39.8670    26.9380 h1         1 O9R       0.061700
     47 H7          15.6590   -41.0750    27.9290 h1         1 O9R       0.061700
     48 H8          16.5760   -39.8900    29.8950 hn         1 O9R       0.488000
     49 H12         11.7000   -41.2420    29.7690 ha         1 O9R       0.122000
     50 H11          9.9070   -41.2110    28.2730 ho         1 O9R       0.484000
     51 H10         10.4420   -39.0320    26.0150 ho         1 O9R       0.485000
     52 H9          13.5700   -37.7100    26.8910 ha         1 O9R       0.164000
     53 H17         13.7670   -38.7500    31.9210 ha         1 O9R       0.128500
     54 H16         14.9060   -39.7030    33.8620 ha         1 O9R       0.129500
     55 H15         16.0500   -41.5400    34.6730 ho         1 O9R       0.472000
     56 H14         15.6460   -43.3080    31.6570 ha         1 O9R       0.129500
     57 H13         14.4820   -42.3500    29.7210 ha         1 O9R       0.128500
@<TRIPOS>BOND
     1     1     2 2   
     2     2     3 2   
     3     2     4 1   
     4     2    11 1   
     5     4     5 ar  
     6     4     8 ar  
     7     5     6 ar  
     8     5    37 1   
     9     6     7 ar  
    10     6    38 1   
    11     7     9 ar  
    12     7    39 1   
    13     8     9 ar  
    14     8    40 1   
    15     9    10 1   
    16    10    41 1   
    17    11    12 ar  
    18    11    16 ar  
    19    12    13 ar  
    20    12    42 1   
    21    13    14 ar  
    22    13    43 1   
    23    14    15 ar  
    24    14    17 1   
    25    15    16 ar  
    26    15    44 1   
    27    16    45 1   
    28    17    18 1   
    29    17    46 1   
    30    17    47 1   
    31    18    19 1   
    32    18    48 1   
    33    19    20 2   
    34    19    21 2   
    35    19    22 1   
    36    22    23 ar  
    37    22    29 ar  
    38    23    24 ar  
    39    23    30 1   
    40    24    25 ar  
    41    24    49 1   
    42    25    26 1   
    43    25    27 ar  
    44    26    50 1   
    45    27    28 1   
    46    27    29 ar  
    47    28    51 1   
    48    29    52 1   
    49    30    31 ar  
    50    30    36 ar  
    51    31    32 ar  
    52    31    53 1   
    53    32    33 ar  
    54    32    54 1   
    55    33    34 1   
    56    33    35 ar  
    57    34    55 1   
    58    35    36 ar  
    59    35    56 1   
    60    36    57 1   
@<TRIPOS>SUBSTRUCTURE
     1 O9R         1 TEMP              0 ****  ****    0 ROOT
