@<TRIPOS>MOLECULE
O9R
   57    60     1     0     0
SMALL
No Charge or Current Charge


@<TRIPOS>ATOM
      1 O7          22.5920   -42.1470    27.8020 o          1 O9R      -0.524500
      2 S           21.3610   -42.9440    27.9030 sy         1 O9R       1.015000
      3 O6          21.1890   -44.1790    27.1230 o          1 O9R      -0.524500
      4 C4          21.0930   -43.3500    29.6490 ca         1 O9R      -0.215500
      5 C3          20.1760   -44.3650    29.9990 ca         1 O9R      -0.054000
      6 C2          19.9410   -44.6690    31.3510 ca         1 O9R      -0.091000
      7 C1          20.6180   -43.9630    32.3600 ca         1 O9R      -0.096000
      8 C24         21.7640   -42.6380    30.6700 ca         1 O9R      -0.121000
      9 C           21.5280   -42.9490    32.0220 ca         1 O9R       0.129100
     10 O           22.1820   -42.2740    33.0120 oh         1 O9R      -0.531100
     11 C5          19.9630   -41.8650    27.5380 ca         1 O9R      -0.253500
     12 C23         20.0640   -40.4770    27.7630 ca         1 O9R      -0.017000
     13 C22         18.9540   -39.6460    27.5380 ca         1 O9R      -0.111000
     14 C8          17.7300   -40.1890    27.0960 ca         1 O9R      -0.039300
     15 C7          17.6400   -41.5740    26.8560 ca         1 O9R      -0.111000
     16 C6          18.7470   -42.4100    27.0770 ca         1 O9R      -0.017000
     17 C9          16.5000   -39.3030    26.9310 c3         1 O9R       0.237100
     18 N           16.3080   -38.4820    28.1350 n7         1 O9R      -0.851300
     19 S1          14.7910   -37.8520    28.3930 sy         1 O9R       1.147600
     20 O1          14.9240   -37.0190    29.5890 o          1 O9R      -0.531500
     21 O5          14.3580   -37.2760    27.1170 o          1 O9R      -0.531500
     22 C10         13.8110   -39.3290    28.7610 ca         1 O9R      -0.289500
     23 C15         14.2940   -40.2670    29.7280 cp         1 O9R       0.064000
     24 C14         13.5110   -41.4240    29.9600 ca         1 O9R      -0.177000
     25 C13         12.3000   -41.6410    29.2830 ca         1 O9R       0.097100
     26 O3          11.5630   -42.7680    29.5350 oh         1 O9R      -0.549100
     27 C12         11.8420   -40.7010    28.3390 ca         1 O9R       0.106100
     28 O2          10.6640   -40.9210    27.6820 oh         1 O9R      -0.526100
     29 C11         12.5970   -39.5490    28.0750 ca         1 O9R      -0.033000
     30 C16         15.5830   -40.1540    30.4720 cp         1 O9R      -0.145000
     31 C21         15.7680   -39.2000    31.5010 ca         1 O9R      -0.045000
     32 C20         16.9930   -39.1090    32.1850 ca         1 O9R      -0.181500
     33 C19         18.0450   -39.9820    31.8630 ca         1 O9R       0.158100
     34 O4          19.2360   -39.8940    32.5170 oh         1 O9R      -0.528100
     35 C18         17.8680   -40.9560    30.8710 ca         1 O9R      -0.181500
     36 C17         16.6430   -41.0510    30.1900 ca         1 O9R      -0.045000
     37 H3          19.6410   -44.9160    29.2270 ha         1 O9R       0.136000
     38 H2          19.2330   -45.4510    31.6160 ha         1 O9R       0.121000
     39 H1          20.4360   -44.2010    33.4050 ha         1 O9R       0.133000
     40 H20         22.4650   -41.8470    30.4120 ha         1 O9R       0.137000
     41 H           22.7450   -41.5830    32.6020 ho         1 O9R       0.472000
     42 H19         20.9920   -40.0400    28.1280 ha         1 O9R       0.136500
     43 H18         19.0390   -38.5790    27.7300 ha         1 O9R       0.123000
     44 H5          16.7040   -42.0110    26.5170 ha         1 O9R       0.123000
     45 H4          18.6490   -43.4810    26.9050 ha         1 O9R       0.136500
     46 H6          16.6210   -38.6690    26.0420 h1         1 O9R       0.061700
     47 H7          15.6290   -39.9500    26.7550 h1         1 O9R       0.061700
     48 H8          16.3640   -39.1070    28.9370 hn         1 O9R       0.488000
     49 H12         13.8630   -42.1560    30.6820 ha         1 O9R       0.122000
     50 H11         12.0280   -43.3020    30.2170 ho         1 O9R       0.484000
     51 H10         10.3170   -41.7770    28.0210 ho         1 O9R       0.485000
     52 H9          12.2340   -38.8350    27.3380 ha         1 O9R       0.164000
     53 H17         14.9550   -38.5280    31.7670 ha         1 O9R       0.128500
     54 H16         17.1160   -38.3600    32.9630 ha         1 O9R       0.129500
     55 H15         19.1740   -39.1730    33.1780 ho         1 O9R       0.472000
     56 H14         18.6780   -41.6400    30.6310 ha         1 O9R       0.129500
     57 H13         16.5130   -41.8190    29.4310 ha         1 O9R       0.128500
@<TRIPOS>BOND
     1     1     2 2   
     2     2     3 2   
     3     2     4 1   
     4     2    11 1   
     5     4     5 ar  
     6     4     8 ar  
     7     5     6 ar  
     8     5    37 1   
     9     6     7 ar  
    10     6    38 1   
    11     7     9 ar  
    12     7    39 1   
    13     8     9 ar  
    14     8    40 1   
    15     9    10 1   
    16    10    41 1   
    17    11    12 ar  
    18    11    16 ar  
    19    12    13 ar  
    20    12    42 1   
    21    13    14 ar  
    22    13    43 1   
    23    14    15 ar  
    24    14    17 1   
    25    15    16 ar  
    26    15    44 1   
    27    16    45 1   
    28    17    18 1   
    29    17    46 1   
    30    17    47 1   
    31    18    19 1   
    32    18    48 1   
    33    19    20 2   
    34    19    21 2   
    35    19    22 1   
    36    22    23 ar  
    37    22    29 ar  
    38    23    24 ar  
    39    23    30 1   
    40    24    25 ar  
    41    24    49 1   
    42    25    26 1   
    43    25    27 ar  
    44    26    50 1   
    45    27    28 1   
    46    27    29 ar  
    47    28    51 1   
    48    29    52 1   
    49    30    31 ar  
    50    30    36 ar  
    51    31    32 ar  
    52    31    53 1   
    53    32    33 ar  
    54    32    54 1   
    55    33    34 1   
    56    33    35 ar  
    57    34    55 1   
    58    35    36 ar  
    59    35    56 1   
    60    36    57 1   
@<TRIPOS>SUBSTRUCTURE
     1 O9R         1 TEMP              0 ****  ****    0 ROOT
