@<TRIPOS>MOLECULE
O9T
   32    34     1     0     0
SMALL
No Charge or Current Charge


@<TRIPOS>ATOM
      1 C4          37.6020    36.6930    33.6160 ca         1 O9T       0.289100
      2 C5          37.6640    36.0440    32.3730 ca         1 O9T      -0.382600
      3 C6          38.3900    36.6330    31.3310 ca         1 O9T       0.238100
      4 C7          36.9830    34.7500    32.1170 c          1 O9T       0.615900
      5 C8          37.1410    34.2050    30.7780 cc         1 O9T      -0.384200
      6 C10         38.0940    34.3680    28.4060 ca         1 O9T      -0.085800
      7 C13         38.5230    33.4770    25.7380 ca         1 O9T      -0.046300
      8 C15         37.5360    33.1520    27.9460 ca         1 O9T      -0.065500
      9 C1          39.0480    37.8530    31.5280 ca         1 O9T      -0.237000
     10 C2          38.9800    38.4900    32.7690 ca         1 O9T       0.242100
     11 C3          38.2570    37.9110    33.8150 ca         1 O9T      -0.310000
     12 C9          37.8720    34.8380    29.7970 cd         1 O9T       0.223900
     13 O1          38.4740    36.0310    30.1010 os         1 O9T      -0.215200
     14 O2          39.6200    39.6740    32.9550 oh         1 O9T      -0.521100
     15 O3          36.9070    36.1470    34.6430 oh         1 O9T      -0.540100
     16 O4          36.3320    34.1830    32.9840 o          1 O9T      -0.601100
     17 C11         38.8740    35.1270    27.5010 ca         1 O9T      -0.065500
     18 C12         39.0850    34.6850    26.1830 ca         1 O9T      -0.120000
     19 C14         37.7500    32.7140    26.6270 ca         1 O9T      -0.120000
     20 C16         38.7560    32.9990    24.3130 c3         1 O9T      -0.052800
     21 H1          36.6360    33.2630    30.6190 ha         1 O9T       0.217000
     22 H2          36.9310    32.5310    28.5990 ha         1 O9T       0.125500
     23 H3          39.6090    38.3040    30.7150 ha         1 O9T       0.151000
     24 H4          38.1980    38.3970    34.7850 ha         1 O9T       0.137000
     25 H5          39.4590    39.9620    33.8780 ho         1 O9T       0.477000
     26 H6          36.5330    35.3030    34.2820 ho         1 O9T       0.526000
     27 H7          39.3250    36.0680    27.8070 ha         1 O9T       0.125500
     28 H8          39.6900    35.2860    25.5080 ha         1 O9T       0.118500
     29 H9          37.3110    31.7740    26.2980 ha         1 O9T       0.118500
     30 H10         39.6550    32.3750    24.2530 hc         1 O9T       0.048033
     31 H11         37.9100    32.4030    23.9480 hc         1 O9T       0.048033
     32 H12         38.8860    33.8420    23.6240 hc         1 O9T       0.048033
@<TRIPOS>BOND
     1     1     2 ar  
     2     1    11 ar  
     3     1    15 1   
     4     2     3 ar  
     5     2     4 1   
     6     3     9 ar  
     7     3    13 1   
     8     4     5 1   
     9     4    16 2   
    10     5    12 2   
    11     5    21 1   
    12     6     8 ar  
    13     6    12 1   
    14     6    17 ar  
    15     7    18 ar  
    16     7    19 ar  
    17     7    20 1   
    18     8    19 ar  
    19     8    22 1   
    20     9    10 ar  
    21     9    23 1   
    22    10    11 ar  
    23    10    14 1   
    24    11    24 1   
    25    12    13 1   
    26    14    25 1   
    27    15    26 1   
    28    17    18 ar  
    29    17    27 1   
    30    18    28 1   
    31    19    29 1   
    32    20    30 1   
    33    20    31 1   
    34    20    32 1   
@<TRIPOS>SUBSTRUCTURE
     1 O9T         1 TEMP              0 ****  ****    0 ROOT
