@<TRIPOS>MOLECULE
O9T
   32    34     1     0     0
SMALL
bcc


@<TRIPOS>ATOM
      1 C4          37.5390    36.6890    33.5460 ca         1 O9T       0.289100
      2 C5          37.6010    36.0370    32.2930 ca         1 O9T      -0.382600
      3 C6          38.4380    36.5760    31.3130 ca         1 O9T       0.238100
      4 C7          36.8280    34.8480    32.0150 c          1 O9T       0.615900
      5 C8          36.9910    34.3070    30.6920 cc         1 O9T      -0.334200
      6 C10         38.0750    34.4160    28.4360 ca         1 O9T      -0.085800
      7 C13         38.5210    33.5080    25.8090 ca         1 O9T      -0.046300
      8 C15         37.8000    33.0940    28.0810 ca         1 O9T      -0.083500
      9 C1          39.2000    37.7080    31.5180 ca         1 O9T      -0.255000
     10 C2          39.1200    38.3250    32.7640 ca         1 O9T       0.242100
     11 C3          38.2970    37.8240    33.7760 ca         1 O9T      -0.328000
     12 C9          37.8310    34.8830    29.8030 cd         1 O9T       0.223900
     13 O1          38.5340    35.9840    30.1030 os         1 O9T      -0.215200
     14 O2          39.8660    39.4180    32.9480 oh         1 O9T      -0.482100
     15 O3          36.7550    36.2190    34.5090 oh         1 O9T      -0.501100
     16 O4          36.0720    34.3440    32.8620 o          1 O9T      -0.601100
     17 C11         38.5820    35.2780    27.4610 ca         1 O9T      -0.083500
     18 C12         38.7920    34.8260    26.1690 ca         1 O9T      -0.138000
     19 C14         38.0190    32.6520    26.7890 ca         1 O9T      -0.138000
     20 C16         38.7900    33.0170    24.4190 c3         1 O9T      -0.052800
     21 H1          36.4190    33.4360    30.4100 ha         1 O9T       0.167000
     22 H2          37.4280    32.3940    28.8180 ha         1 O9T       0.143500
     23 H3          39.8410    38.1010    30.7400 ha         1 O9T       0.169000
     24 H4          38.2500    38.3140    34.7420 ha         1 O9T       0.155000
     25 H5          39.7500    39.7670    33.8400 ho         1 O9T       0.438000
     26 H6          36.3050    35.4130    34.1540 ho         1 O9T       0.487000
     27 H7          38.8000    36.3110    27.6930 ha         1 O9T       0.143500
     28 H8          39.1730    35.5160    25.4270 ha         1 O9T       0.136500
     29 H9          37.8010    31.6200    26.5410 ha         1 O9T       0.136500
     30 H10         39.8140    32.6460    24.3360 hc         1 O9T       0.048033
     31 H11         38.1260    32.1980    24.1460 hc         1 O9T       0.048033
     32 H12         38.6730    33.8120    23.6840 hc         1 O9T       0.048033
@<TRIPOS>BOND
     1     1     2 ar  
     2     1    11 ar  
     3     1    15 1   
     4     2     3 ar  
     5     2     4 1   
     6     3     9 ar  
     7     3    13 1   
     8     4     5 1   
     9     4    16 2   
    10     5    12 2   
    11     5    21 1   
    12     6     8 ar  
    13     6    12 1   
    14     6    17 ar  
    15     7    18 ar  
    16     7    19 ar  
    17     7    20 1   
    18     8    19 ar  
    19     8    22 1   
    20     9    10 ar  
    21     9    23 1   
    22    10    11 ar  
    23    10    14 1   
    24    11    24 1   
    25    12    13 1   
    26    14    25 1   
    27    15    26 1   
    28    17    18 ar  
    29    17    27 1   
    30    18    28 1   
    31    19    29 1   
    32    20    30 1   
    33    20    31 1   
    34    20    32 1   
@<TRIPOS>SUBSTRUCTURE
     1 O9T         1 TEMP              0 ****  ****    0 ROOT
