@<TRIPOS>MOLECULE
O9U
   38    40     1     0     0
SMALL
No Charge or Current Charge


@<TRIPOS>ATOM
      1 C1          -6.1670    -5.6840    16.4040 c2         1 O9U       0.119900
      2 C2          -5.1410    -6.5060    16.1480 ce         1 O9U      -0.341200
      3 C3          -4.7860    -7.6370    17.0350 c          1 O9U       0.587200
      4 N4          -5.4520    -7.7080    18.2780 n          1 O9U      -0.413800
      5 C5          -6.3440    -6.6130    18.7410 c6         1 O9U       0.116000
      6 C6          -7.0850    -5.9050    17.5880 c6         1 O9U      -0.101200
      7 O7          -6.5040    -4.6670    15.5980 oh         1 O9U      -0.522100
      8 O8          -3.9580    -8.4630    16.6840 o          1 O9U      -0.560000
      9 C9          -5.1570    -8.8100    19.2280 c3         1 O9U       0.149300
     10 C10         -4.9730    -8.3620    20.6820 ca         1 O9U      -0.099300
     11 C11         -5.8770    -8.8480    21.6500 ca         1 O9U      -0.101000
     12 C12         -5.7810    -8.4370    22.9890 ca         1 O9U      -0.106000
     13 C13         -4.7840    -7.5310    23.3730 ca         1 O9U       0.122000
     14 C14         -3.8790    -7.0400    22.4210 ca         1 O9U      -0.098000
     15 C15         -3.9480    -7.4500    21.0680 cp         1 O9U      -0.007000
     16 C16         -2.9680    -6.8910    20.0930 cp         1 O9U      -0.055000
     17 C17         -2.9090    -5.4970    19.8550 ca         1 O9U      -0.091500
     18 C18         -1.9970    -4.9590    18.9310 ca         1 O9U      -0.103500
     19 C19         -1.1190    -5.8080    18.2360 ca         1 O9U      -0.100000
     20 C20         -1.1520    -7.1930    18.4700 ca         1 O9U      -0.103500
     21 C21         -2.0670    -7.7290    19.3920 ca         1 O9U      -0.091500
     22 Cl22        -4.6680    -7.0090    25.0480 cl         1 O9U      -0.200000
     23 H23         -4.5280    -6.3850    15.2590 ha         1 O9U       0.220000
     24 H24         -7.0780    -7.0030    19.4600 h1         1 O9U       0.049700
     25 H1          -5.7290    -5.8730    19.2700 h1         1 O9U       0.049700
     26 H2          -7.5080    -4.9590    17.9530 hc         1 O9U       0.064700
     27 H25         -7.9310    -6.5300    17.2680 hc         1 O9U       0.064700
     28 H26         -7.3140    -4.2500    15.9620 ho         1 O9U       0.467000
     29 H27         -5.9840    -9.5300    19.1690 h1         1 O9U       0.067700
     30 H28         -4.2550    -9.3520    18.9200 h1         1 O9U       0.067700
     31 H29         -6.6650    -9.5420    21.3640 ha         1 O9U       0.117000
     32 H30         -6.4840    -8.8160    23.7280 ha         1 O9U       0.131000
     33 H31         -3.1100    -6.3390    22.7310 ha         1 O9U       0.135000
     34 H32         -3.5870    -4.8320    20.3850 ha         1 O9U       0.112500
     35 H33         -1.9700    -3.8860    18.7540 ha         1 O9U       0.114500
     36 H34         -0.4130    -5.3930    17.5200 ha         1 O9U       0.113000
     37 H35         -0.4700    -7.8510    17.9360 ha         1 O9U       0.114500
     38 H36         -2.0780    -8.8010    19.5700 ha         1 O9U       0.112500
@<TRIPOS>BOND
     1     1     2 2   
     2     1     6 1   
     3     1     7 1   
     4     2     3 1   
     5     2    23 1   
     6     3     4 1   
     7     3     8 2   
     8     4     5 1   
     9     4     9 1   
    10     5     6 1   
    11     5    24 1   
    12     5    25 1   
    13     6    26 1   
    14     6    27 1   
    15     7    28 1   
    16     9    10 1   
    17     9    29 1   
    18     9    30 1   
    19    10    11 ar  
    20    10    15 ar  
    21    11    12 ar  
    22    11    31 1   
    23    12    13 ar  
    24    12    32 1   
    25    13    14 ar  
    26    13    22 1   
    27    14    15 ar  
    28    14    33 1   
    29    15    16 1   
    30    16    17 ar  
    31    16    21 ar  
    32    17    18 ar  
    33    17    34 1   
    34    18    19 ar  
    35    18    35 1   
    36    19    20 ar  
    37    19    36 1   
    38    20    21 ar  
    39    20    37 1   
    40    21    38 1   
@<TRIPOS>SUBSTRUCTURE
     1 O9U         1 TEMP              0 ****  ****    0 ROOT
