@<TRIPOS>MOLECULE
O9U
   38    40     1     0     0
SMALL
abcg2


@<TRIPOS>ATOM
      1 C1          -6.2270    -5.6220    16.5430 c2         1 O9U       0.119900
      2 C2          -5.0790    -6.2950    16.3720 ce         1 O9U      -0.341200
      3 C3          -4.7570    -7.4860    17.1650 c          1 O9U       0.587200
      4 N4          -5.4730    -7.6740    18.3060 n          1 O9U      -0.413800
      5 C5          -6.4150    -6.6710    18.7660 c6         1 O9U       0.116000
      6 C6          -7.1760    -6.0350    17.6190 c6         1 O9U      -0.101200
      7 O7          -6.5610    -4.6310    15.7150 oh         1 O9U      -0.522100
      8 O8          -3.9020    -8.2800    16.7840 o          1 O9U      -0.560000
      9 C9          -5.1800    -8.7830    19.1920 c3         1 O9U       0.149300
     10 C10         -4.9700    -8.3410    20.6210 ca         1 O9U      -0.099300
     11 C11         -5.8450    -8.7990    21.6000 ca         1 O9U      -0.101000
     12 C12         -5.7530    -8.3850    22.9200 ca         1 O9U      -0.106000
     13 C13         -4.7690    -7.4740    23.2580 ca         1 O9U       0.122000
     14 C14         -3.8790    -7.0000    22.3070 ca         1 O9U      -0.098000
     15 C15         -3.9660    -7.4360    20.9870 cp         1 O9U      -0.007000
     16 C16         -2.9710    -6.9170    20.0170 cp         1 O9U      -0.055000
     17 C17         -2.9270    -5.5590    19.7100 ca         1 O9U      -0.091500
     18 C18         -1.9690    -5.0640    18.8370 ca         1 O9U      -0.103500
     19 C19         -1.0330    -5.9210    18.2720 ca         1 O9U      -0.100000
     20 C20         -1.0650    -7.2740    18.5800 ca         1 O9U      -0.103500
     21 C21         -2.0320    -7.7700    19.4420 ca         1 O9U      -0.091500
     22 CL22        -4.6430    -6.9150    24.8930 cl         1 O9U      -0.200000
     23 H23         -4.4050    -6.0590    15.5580 ha         1 O9U       0.220000
     24 H24         -7.1240    -7.1450    19.4450 h1         1 O9U       0.049700
     25 H1          -5.8970    -5.8910    19.3350 h1         1 O9U       0.049700
     26 H2          -7.7300    -5.1750    18.0040 hc         1 O9U       0.064700
     27 H25         -7.9150    -6.7260    17.2020 hc         1 O9U       0.064700
     28 H26         -7.3910    -4.2170    15.9800 ho         1 O9U       0.467000
     29 H27         -6.0070    -9.5000    19.1710 h1         1 O9U       0.067700
     30 H28         -4.3040    -9.3000    18.8060 h1         1 O9U       0.067700
     31 H29         -6.6340    -9.4880    21.3250 ha         1 O9U       0.117000
     32 H30         -6.4460    -8.7560    23.6630 ha         1 O9U       0.131000
     33 H31         -3.1050    -6.2980    22.5880 ha         1 O9U       0.135000
     34 H32         -3.6530    -4.8860    20.1520 ha         1 O9U       0.112500
     35 H33         -1.9510    -4.0080    18.6000 ha         1 O9U       0.114500
     36 H34         -0.2800    -5.5340    17.5970 ha         1 O9U       0.113000
     37 H35         -0.3350    -7.9470    18.1480 ha         1 O9U       0.114500
     38 H36         -2.0490    -8.8260    19.6820 ha         1 O9U       0.112500
@<TRIPOS>BOND
     1     1     2 2   
     2     1     6 1   
     3     1     7 1   
     4     2     3 1   
     5     2    23 1   
     6     3     4 1   
     7     3     8 2   
     8     4     5 1   
     9     4     9 1   
    10     5     6 1   
    11     5    24 1   
    12     5    25 1   
    13     6    26 1   
    14     6    27 1   
    15     7    28 1   
    16     9    10 1   
    17     9    29 1   
    18     9    30 1   
    19    10    11 ar  
    20    10    15 ar  
    21    11    12 ar  
    22    11    31 1   
    23    12    13 ar  
    24    12    32 1   
    25    13    14 ar  
    26    13    22 1   
    27    14    15 ar  
    28    14    33 1   
    29    15    16 1   
    30    16    17 ar  
    31    16    21 ar  
    32    17    18 ar  
    33    17    34 1   
    34    18    19 ar  
    35    18    35 1   
    36    19    20 ar  
    37    19    36 1   
    38    20    21 ar  
    39    20    37 1   
    40    21    38 1   
@<TRIPOS>SUBSTRUCTURE
     1 O9U         1 TEMP              0 ****  ****    0 ROOT
