@<TRIPOS>MOLECULE
O9W
   59    62     1     0     0
SMALL
No Charge or Current Charge


@<TRIPOS>ATOM
      1 C1         -34.4980    17.5620   -11.0420 ca         1 O9W      -0.087000
      2 C2         -33.2400    17.1590   -10.5690 ca         1 O9W       0.119000
      3 C3         -33.0330    16.9790    -9.1960 ca         1 O9W      -0.086000
      4 C11        -40.6370    21.8150    -7.9880 c6         1 O9W       0.156800
      5 C12        -39.2260    21.2050    -7.7260 c6         1 O9W       0.118700
      6 C13        -38.2000    22.3350    -7.4360 c3         1 O9W      -0.101100
      7 C14        -42.5630    23.0360    -6.9950 c3         1 O9W       0.223100
      8 C15        -43.6600    22.2050    -7.6630 ca         1 O9W      -0.142300
      9 C16        -43.7640    22.1630    -9.0690 ca         1 O9W      -0.075000
     10 C17        -45.6860    20.6850    -8.8920 ca         1 O9W       0.175000
     11 C18        -45.5990    20.7290    -7.4930 ca         1 O9W      -0.152000
     12 C19        -44.7740    21.4010    -9.6820 ca         1 O9W      -0.152000
     13 C20        -44.5890    21.4910    -6.8780 ca         1 O9W      -0.075000
     14 C23        -37.2740    18.9290    -7.6520 ce         1 O9W      -0.276200
     15 C29        -38.0870    21.3600   -11.3890 cc         1 O9W       0.504300
     16 C4         -34.0820    17.2170    -8.2940 ca         1 O9W      -0.095000
     17 C5         -35.3450    17.6450    -8.7500 ca         1 O9W      -0.031800
     18 C6         -36.3880    17.8920    -7.7340 cf         1 O9W      -0.116200
     19 N7         -39.2190    20.1780    -6.6330 n          1 O9W      -0.404800
     20 C8         -40.0760    20.5080    -5.4490 c6         1 O9W       0.093000
     21 C9         -41.4380    21.1710    -5.7920 c6         1 O9W       0.151800
     22 N10        -41.2960    22.2980    -6.7480 n3         1 O9W      -0.722600
     23 O22        -38.3350    18.3090    -5.6390 o          1 O9W      -0.613100
     24 F24        -46.6560    19.9530    -9.4820 f          1 O9W      -0.178000
     25 Cl1        -31.9290    16.8630   -11.7030 cl         1 O9W      -0.187000
     26 N27        -37.1640    19.5860   -11.0200 na         1 O9W       0.244600
     27 N28        -38.4080    20.0990   -11.2380 nd         1 O9W      -0.544800
     28 N30        -36.7650    21.6590   -11.2810 nc         1 O9W      -0.384000
     29 N31        -36.1640    20.5270   -11.0440 nd         1 O9W      -0.177800
     30 C33        -35.5630    17.8040   -10.1470 ca         1 O9W      -0.099300
     31 H1         -34.6470    17.6760   -12.1140 ha         1 O9W       0.139000
     32 H2         -32.0600    16.6590    -8.8310 ha         1 O9W       0.136000
     33 H3         -40.5420    22.6340    -8.7170 h1         1 O9W       0.040700
     34 H4         -41.2570    21.0410    -8.4640 h1         1 O9W       0.040700
     35 H5         -38.9480    20.7300    -8.6730 h1         1 O9W       0.065700
     36 H6         -37.1890    21.9310    -7.3080 hc         1 O9W       0.043700
     37 H7         -38.1630    23.0570    -8.2600 hc         1 O9W       0.043700
     38 H8         -38.4560    22.8830    -6.5220 hc         1 O9W       0.043700
     39 H9         -42.3590    23.9130    -7.6240 h1         1 O9W       0.060200
     40 H10        -42.9510    23.4280    -6.0450 h1         1 O9W       0.060200
     41 H11        -43.0600    22.7170    -9.6860 ha         1 O9W       0.115500
     42 H12        -46.3120    20.1750    -6.8880 ha         1 O9W       0.133500
     43 H13        -44.8500    21.3640   -10.7660 ha         1 O9W       0.133500
     44 H14        -44.5260    21.5220    -5.7920 ha         1 O9W       0.115500
     45 H15        -37.2010    19.7070    -8.3980 ha         1 O9W       0.207000
     46 H16        -37.7290    17.8020   -10.0740 h1         1 O9W       0.088700
     47 H17        -37.0610    17.6140   -11.6860 h1         1 O9W       0.088700
     48 H18        -33.9070    17.0830    -7.2290 ha         1 O9W       0.128000
     49 H19        -36.4200    17.1350    -6.9460 ha         1 O9W       0.205000
     50 H20        -40.2810    19.6030    -4.8600 h1         1 O9W       0.063700
     51 H21        -39.5120    21.1910    -4.7990 h1         1 O9W       0.063700
     52 H22        -41.9070    21.5140    -4.8590 h1         1 O9W       0.043200
     53 H23        -42.0950    20.3970    -6.2170 h1         1 O9W       0.043200
     54 H25        -40.1160    22.0570   -11.5700 hc         1 O9W       0.060700
     55 H26        -38.9820    23.2530   -10.9160 hc         1 O9W       0.060700
     56 H27        -38.9590    22.8620   -12.6480 hc         1 O9W       0.060700
     57 C26        -36.9340    18.1540   -10.7410 c3         1 O9W       0.136900
     58 C32        -39.0920    22.4420   -11.6450 c3         1 O9W      -0.112400
     59 C21        -38.2980    19.1010    -6.5720 c          1 O9W       0.606300
@<TRIPOS>BOND
     1     1     2 ar  
     2     1    30 ar  
     3     1    31 1   
     4     2     3 ar  
     5     2    25 1   
     6     3    16 ar  
     7     3    32 1   
     8     4     5 1   
     9     4    22 1   
    10     4    33 1   
    11     4    34 1   
    12     5     6 1   
    13     5    19 1   
    14     5    35 1   
    15     6    36 1   
    16     6    37 1   
    17     6    38 1   
    18     7     8 1   
    19     7    22 1   
    20     7    39 1   
    21     7    40 1   
    22     8     9 ar  
    23     8    13 ar  
    24     9    12 ar  
    25     9    41 1   
    26    10    11 ar  
    27    10    12 ar  
    28    10    24 1   
    29    11    13 ar  
    30    11    42 1   
    31    12    43 1   
    32    13    44 1   
    33    14    18 2   
    34    14    45 1   
    35    14    59 1   
    36    15    27 2   
    37    15    28 1   
    38    15    58 1   
    39    16    17 ar  
    40    16    48 1   
    41    17    18 1   
    42    17    30 ar  
    43    18    49 1   
    44    19    20 1   
    45    19    59 1   
    46    20    21 1   
    47    20    50 1   
    48    20    51 1   
    49    21    22 1   
    50    21    52 1   
    51    21    53 1   
    52    23    59 2   
    53    26    27 1   
    54    26    29 1   
    55    26    57 1   
    56    28    29 2   
    57    30    57 1   
    58    46    57 1   
    59    47    57 1   
    60    54    58 1   
    61    55    58 1   
    62    56    58 1   
@<TRIPOS>SUBSTRUCTURE
     1 O9W         1 TEMP              0 ****  ****    0 ROOT
