@<TRIPOS>MOLECULE
O9W
   59    62     1     0     0
SMALL
bcc


@<TRIPOS>ATOM
      1 C1         -35.0330    17.5340   -11.0480 ca         1 O9W      -0.105000
      2 C2         -33.8170    17.0520   -10.6050 ca         1 O9W       0.027400
      3 C3         -33.5820    16.8560    -9.2520 ca         1 O9W      -0.104000
      4 C11        -40.7390    21.6890    -8.0540 c6         1 O9W       0.156800
      5 C12        -39.2670    21.4210    -7.7530 c6         1 O9W       0.118700
      6 C13        -38.4610    22.7000    -7.5680 c3         1 O9W      -0.101100
      7 C14        -42.7280    22.7880    -7.1800 c3         1 O9W       0.223100
      8 C15        -43.7730    21.7960    -7.6410 ca         1 O9W      -0.142300
      9 C16        -43.9130    21.4740    -8.9900 ca         1 O9W      -0.093000
     10 C17        -45.6350    19.9160    -8.4690 ca         1 O9W       0.139900
     11 C18        -45.5370    20.2120    -7.1240 ca         1 O9W      -0.170000
     12 C19        -44.8410    20.5330    -9.4160 ca         1 O9W      -0.170000
     13 C20        -44.6010    21.1560    -6.7230 ca         1 O9W      -0.093000
     14 C23        -37.4130    19.2170    -7.6180 ce         1 O9W      -0.226200
     15 C29        -37.1290    21.6370   -11.5960 cc         1 O9W       0.504300
     16 C4         -34.5830    17.1710    -8.3540 ca         1 O9W      -0.113000
     17 C5         -35.8070    17.7050    -8.7670 ca         1 O9W      -0.031800
     18 C6         -36.7720    18.0520    -7.7130 cf         1 O9W      -0.066200
     19 N7         -39.1660    20.5440    -6.5850 n          1 O9W      -0.471800
     20 C8         -39.9550    20.9600    -5.4350 c6         1 O9W       0.093000
     21 C9         -41.3890    21.2630    -5.8260 c6         1 O9W       0.151800
     22 N10        -41.4140    22.2350    -6.8990 n3         1 O9W      -0.722600
     23 O22        -38.3170    18.7580    -5.4890 o          1 O9W      -0.613100
     24 F24        -46.5380    19.0050    -8.8710 f          1 O9W      -0.142900
     25 CL1        -32.5850    16.6600   -11.7540 cl         1 O9W      -0.095400
     26 N27        -37.2900    19.6120   -11.3260 na         1 O9W       0.273900
     27 N28        -37.2000    20.7260   -10.6450 nd         1 O9W      -0.544800
     28 N30        -37.1680    21.0620   -12.8100 nc         1 O9W      -0.384000
     29 N31        -37.2690    19.7870   -12.6140 nd         1 O9W      -0.177800
     30 C33        -36.0350    17.8630   -10.1390 ca         1 O9W      -0.099300
     31 H1         -35.2140    17.6420   -12.1110 ha         1 O9W       0.157000
     32 H2         -32.6380    16.4600    -8.9040 ha         1 O9W       0.154000
     33 H3         -40.7950    22.4000    -8.8810 h1         1 O9W       0.040700
     34 H4         -41.2020    20.7500    -8.3990 h1         1 O9W       0.040700
     35 H5         -38.8860    20.8940    -8.6250 h1         1 O9W       0.065700
     36 H6         -37.4090    22.4770    -7.3910 hc         1 O9W       0.043700
     37 H7         -38.5260    23.3160    -8.4660 hc         1 O9W       0.043700
     38 H8         -38.8310    23.2940    -6.7330 hc         1 O9W       0.043700
     39 H9         -42.6030    23.5650    -7.9390 h1         1 O9W       0.060200
     40 H10        -43.0800    23.2860    -6.2720 h1         1 O9W       0.060200
     41 H11        -43.2970    21.9710    -9.7300 ha         1 O9W       0.133500
     42 H12        -46.1800    19.7230    -6.4050 ha         1 O9W       0.151500
     43 H13        -44.9460    20.2900   -10.4650 ha         1 O9W       0.151500
     44 H14        -44.5260    21.4010    -5.6700 ha         1 O9W       0.133500
     45 H15        -37.2190    19.9890    -8.3500 ha         1 O9W       0.157000
     46 H16        -38.1490    18.3130    -9.9650 h1         1 O9W       0.088700
     47 H17        -37.6690    17.6160   -11.5040 h1         1 O9W       0.088700
     48 H18        -34.4040    17.0170    -7.2970 ha         1 O9W       0.146000
     49 H19        -36.9140    17.3050    -6.9380 ha         1 O9W       0.155000
     50 H20        -39.9410    20.1700    -4.6890 h1         1 O9W       0.063700
     51 H21        -39.5030    21.8480    -4.9820 h1         1 O9W       0.063700
     52 H22        -41.9070    21.6660    -4.9530 h1         1 O9W       0.043200
     53 H23        -41.8930    20.3240    -6.1040 h1         1 O9W       0.043200
     54 H25        -36.7310    23.6080   -12.2670 hc         1 O9W       0.060700
     55 H26        -38.0010    23.5020   -11.0510 hc         1 O9W       0.060700
     56 H27        -36.3190    23.3190   -10.5710 hc         1 O9W       0.060700
     57 C26        -37.3610    18.2970   -10.7130 c3         1 O9W       0.107600
     58 C32        -37.0370    23.0960   -11.3580 c3         1 O9W      -0.112400
     59 C21        -38.3350    19.4830    -6.4790 c          1 O9W       0.673300
@<TRIPOS>BOND
     1     1     2 ar  
     2     1    30 ar  
     3     1    31 1   
     4     2     3 ar  
     5     2    25 1   
     6     3    16 ar  
     7     3    32 1   
     8     4     5 1   
     9     4    22 1   
    10     4    33 1   
    11     4    34 1   
    12     5     6 1   
    13     5    19 1   
    14     5    35 1   
    15     6    36 1   
    16     6    37 1   
    17     6    38 1   
    18     7     8 1   
    19     7    22 1   
    20     7    39 1   
    21     7    40 1   
    22     8     9 ar  
    23     8    13 ar  
    24     9    12 ar  
    25     9    41 1   
    26    10    11 ar  
    27    10    12 ar  
    28    10    24 1   
    29    11    13 ar  
    30    11    42 1   
    31    12    43 1   
    32    13    44 1   
    33    14    18 2   
    34    14    45 1   
    35    14    59 1   
    36    15    27 2   
    37    15    28 1   
    38    15    58 1   
    39    16    17 ar  
    40    16    48 1   
    41    17    18 1   
    42    17    30 ar  
    43    18    49 1   
    44    19    20 1   
    45    19    59 1   
    46    20    21 1   
    47    20    50 1   
    48    20    51 1   
    49    21    22 1   
    50    21    52 1   
    51    21    53 1   
    52    23    59 2   
    53    26    27 1   
    54    26    29 1   
    55    26    57 1   
    56    28    29 2   
    57    30    57 1   
    58    46    57 1   
    59    47    57 1   
    60    54    58 1   
    61    55    58 1   
    62    56    58 1   
@<TRIPOS>SUBSTRUCTURE
     1 O9W         1 TEMP              0 ****  ****    0 ROOT
