@<TRIPOS>MOLECULE
O9X
   28    28     1     0     0
SMALL
No Charge or Current Charge


@<TRIPOS>ATOM
      1 N1           7.0000     1.4010    17.9590 nb         1 O9X      -0.644000
      2 C4           7.2090     0.4720    20.2090 ca         1 O9X      -0.090000
      3 C5           7.7530     0.9210    18.9770 ca         1 O9X       0.334900
      4 C6           5.6610     1.4500    18.1330 ca         1 O9X       0.321900
      5 C7           5.0310     1.0230    19.3120 ca         1 O9X      -0.144000
      6 C8           5.8060     0.5220    20.3740 ca         1 O9X      -0.078300
      7 O1          10.1940     0.3840    20.6690 o          1 O9X      -0.551100
      8 C3           9.3870    -0.0960    21.4590 c          1 O9X       0.563100
      9 C1           9.8110    -0.7510    22.8110 c3         1 O9X       0.108300
     10 O           11.1280    -0.3360    23.2630 os         1 O9X      -0.464000
     11 C2          11.2730     1.0600    23.5890 c3         1 O9X       0.382300
     12 F1          10.4960     1.3920    24.6460 f          1 O9X      -0.120500
     13 F           12.5470     1.3210    23.9560 f          1 O9X      -0.120500
     14 C            9.8690    -2.2880    22.6900 c3         1 O9X      -0.088100
     15 N            8.0100    -0.0380    21.2750 ns         1 O9X      -0.151000
     16 C9           5.1300     0.0550    21.6600 c3         1 O9X      -0.052800
     17 H1           8.8210     0.8930    18.7770 h4         1 O9X       0.045100
     18 H2           5.0760     1.8400    17.3010 h4         1 O9X       0.024100
     19 H3           3.9490     1.0850    19.3900 ha         1 O9X       0.124000
     20 H4           9.0520    -0.4930    23.5620 h1         1 O9X       0.055700
     21 H5          11.0140     1.6990    22.7380 h3         1 O9X       0.063700
     22 H6          10.1530    -2.7390    23.6480 hc         1 O9X       0.060700
     23 H7           8.8910    -2.6930    22.4010 hc         1 O9X       0.060700
     24 H8          10.6030    -2.5910    21.9330 hc         1 O9X       0.060700
     25 H9           7.4720    -0.4380    22.0340 hn         1 O9X       0.154000
     26 H10          5.3240    -1.0080    21.8450 hc         1 O9X       0.047367
     27 H11          5.4920     0.6220    22.5260 hc         1 O9X       0.047367
     28 H12          4.0420     0.1860    21.6170 hc         1 O9X       0.047367
@<TRIPOS>BOND
     1     1     3 ar  
     2     1     4 ar  
     3     2     3 ar  
     4     2     6 ar  
     5     2    15 1   
     6     3    17 1   
     7     4     5 ar  
     8     4    18 1   
     9     5     6 ar  
    10     5    19 1   
    11     6    16 1   
    12     7     8 2   
    13     8     9 1   
    14     8    15 1   
    15     9    10 1   
    16     9    14 1   
    17     9    20 1   
    18    10    11 1   
    19    11    12 1   
    20    11    13 1   
    21    11    21 1   
    22    14    22 1   
    23    14    23 1   
    24    14    24 1   
    25    15    25 1   
    26    16    26 1   
    27    16    27 1   
    28    16    28 1   
@<TRIPOS>SUBSTRUCTURE
     1 O9X         1 TEMP              0 ****  ****    0 ROOT
