@<TRIPOS>MOLECULE
O9X
   28    28     1     0     0
SMALL
abcg2


@<TRIPOS>ATOM
      1 N1           7.0650     0.9710    17.9070 nb         1 O9X      -0.644000
      2 C4           7.1950     0.3210    20.2150 ca         1 O9X      -0.090000
      3 C5           7.7560     0.5120    18.9510 ca         1 O9X       0.334900
      4 C6           5.7710     1.2470    18.0910 ca         1 O9X       0.321900
      5 C7           5.1300     1.0770    19.3090 ca         1 O9X      -0.144000
      6 C8           5.8370     0.6090    20.4120 ca         1 O9X      -0.078300
      7 O1          10.0160     0.6780    20.8230 o          1 O9X      -0.551100
      8 C3           9.2770     0.0020    21.5200 c          1 O9X       0.563100
      9 C1           9.7900    -0.7630    22.7530 c3         1 O9X       0.108300
     10 O           11.0430    -0.2120    23.1840 os         1 O9X      -0.464000
     11 C2          10.9900     1.0120    23.7600 c3         1 O9X       0.382300
     12 F1          10.7100     0.8990    25.1060 f          1 O9X      -0.120500
     13 F           12.2340     1.5480    23.6790 f          1 O9X      -0.120500
     14 C           10.0440    -2.2220    22.4140 c3         1 O9X      -0.088100
     15 N            7.9510    -0.1830    21.2920 ns         1 O9X      -0.151000
     16 C9           5.1770     0.4280    21.7460 c3         1 O9X      -0.052800
     17 H1           8.8000     0.2860    18.7870 h4         1 O9X       0.045100
     18 H2           5.2250     1.6170    17.2300 h4         1 O9X       0.024100
     19 H3           4.0780     1.3160    19.4050 ha         1 O9X       0.124000
     20 H4           9.0610    -0.6860    23.5640 h1         1 O9X       0.055700
     21 H5          10.2640     1.7000    23.3270 h3         1 O9X       0.063700
     22 H6          10.4190    -2.7430    23.2950 hc         1 O9X       0.060700
     23 H7           9.1190    -2.6990    22.0920 hc         1 O9X       0.060700
     24 H8          10.7800    -2.2990    21.6120 hc         1 O9X       0.060700
     25 H9           7.4380    -0.6910    21.9980 hn         1 O9X       0.154000
     26 H10          5.1500    -0.6280    22.0350 hc         1 O9X       0.047367
     27 H11          5.7210     0.9630    22.5280 hc         1 O9X       0.047367
     28 H12          4.1530     0.7940    21.7200 hc         1 O9X       0.047367
@<TRIPOS>BOND
     1     1     3 ar  
     2     1     4 ar  
     3     2     3 ar  
     4     2     6 ar  
     5     2    15 1   
     6     3    17 1   
     7     4     5 ar  
     8     4    18 1   
     9     5     6 ar  
    10     5    19 1   
    11     6    16 1   
    12     7     8 2   
    13     8     9 1   
    14     8    15 1   
    15     9    10 1   
    16     9    14 1   
    17     9    20 1   
    18    10    11 1   
    19    11    12 1   
    20    11    13 1   
    21    11    21 1   
    22    14    22 1   
    23    14    23 1   
    24    14    24 1   
    25    15    25 1   
    26    16    26 1   
    27    16    27 1   
    28    16    28 1   
@<TRIPOS>SUBSTRUCTURE
     1 O9X         1 TEMP              0 ****  ****    0 ROOT
