@<TRIPOS>MOLECULE
O9Y
   40    42     1     0     0
SMALL
No Charge or Current Charge


@<TRIPOS>ATOM
      1 C21         -2.8820     0.4060     0.2090 ca         1 O9Y      -0.317500
      2 C22         -2.6890     1.5130    -0.6470 ca         1 O9Y      -0.019500
      3 C24         -1.2860     2.5770     1.0390 ca         1 O9Y      -0.056000
      4 C26         -2.2750     0.3940     1.4830 ca         1 O9Y      -0.019500
      5 C02          3.4400    -1.1050     0.4070 ca         1 O9Y      -0.108300
      6 C03          2.2600    -1.8780     0.3540 ca         1 O9Y       0.219000
      7 C05          1.0370    -1.3050    -0.0610 ca         1 O9Y      -0.188600
      8 C06          1.0190     0.0670    -0.4160 ca         1 O9Y      -0.064000
      9 C07          2.1870     0.8500    -0.3540 ca         1 O9Y       0.002800
     10 C08          3.3960     0.2570     0.0540 ca         1 O9Y      -0.063000
     11 C11          1.6860     3.9540    -1.7030 cc         1 O9Y       0.204900
     12 C12          2.3970     4.2600    -0.5400 cc         1 O9Y       0.204900
     13 C14         -0.2360    -2.1150    -0.0780 c          1 O9Y       0.643700
     14 C23         -1.8930     2.5940    -0.2280 ca         1 O9Y      -0.127500
     15 C25         -1.4790     1.4780     1.8930 ca         1 O9Y      -0.127500
     16 N09          2.1350     2.2090    -0.6800 na         1 O9Y       0.345800
     17 N10          1.4990     2.6620    -1.8300 nd         1 O9Y      -0.497300
     18 N13          2.7010     3.1800     0.1390 nd         1 O9Y      -0.497300
     19 N16         -1.2280    -1.6470    -0.9360 ns         1 O9Y      -0.383300
     20 N17         -2.6200    -2.0500    -0.8640 n7         1 O9Y      -0.575300
     21 O15         -0.4280    -3.0720     0.6620 o          1 O9Y      -0.501100
     22 O19         -4.4760    -1.6680     0.8200 o          1 O9Y      -0.512500
     23 O20         -4.6040    -0.6410    -1.5400 o          1 O9Y      -0.512500
     24 S18         -3.8530    -1.0200    -0.3390 sy         1 O9Y       1.126600
     25 H1          -3.1420     1.5380    -1.6370 ha         1 O9Y       0.138500
     26 H2          -0.6660     3.4120     1.3580 ha         1 O9Y       0.118000
     27 H3          -2.4060    -0.4570     2.1510 ha         1 O9Y       0.138500
     28 H4           5.0440    -2.5560     0.1770 hc         1 O9Y       0.054700
     29 H5           5.5800    -1.0090     0.8450 hc         1 O9Y       0.054700
     30 H6           4.6800    -2.1420     1.8610 hc         1 O9Y       0.054700
     31 H7           0.0910     0.5540    -0.7040 ha         1 O9Y       0.149000
     32 H8           4.3010     0.8600     0.1000 ha         1 O9Y       0.149000
     33 H9           1.3050     4.6330    -2.4540 h4         1 O9Y       0.056600
     34 H10          2.6970     5.2320    -0.1740 h4         1 O9Y       0.056600
     35 H11         -1.7410     3.4430    -0.8900 ha         1 O9Y       0.123000
     36 H12         -1.0070     1.4630     2.8730 ha         1 O9Y       0.123000
     37 H13         -0.9460    -0.8790    -1.5400 hn         1 O9Y       0.326500
     38 H14         -2.9890    -2.5170    -1.6970 hn         1 O9Y       0.477000
     39 F04          2.3270    -3.1890     0.6840 f          1 O9Y      -0.152000
     40 C01          4.7580    -1.7350     0.8460 c3         1 O9Y      -0.044800
@<TRIPOS>BOND
     1     1     2 ar  
     2     1     4 ar  
     3     1    24 1   
     4     2    14 ar  
     5     2    25 1   
     6     3    14 ar  
     7     3    15 ar  
     8     3    26 1   
     9     4    15 ar  
    10     4    27 1   
    11     5     6 ar  
    12     5    10 ar  
    13     5    40 1   
    14     6     7 ar  
    15     6    39 1   
    16     7     8 ar  
    17     7    13 1   
    18     8     9 ar  
    19     8    31 1   
    20     9    10 ar  
    21     9    16 1   
    22    10    32 1   
    23    11    12 1   
    24    11    17 2   
    25    11    33 1   
    26    12    18 2   
    27    12    34 1   
    28    13    19 1   
    29    13    21 2   
    30    14    35 1   
    31    15    36 1   
    32    16    17 1   
    33    16    18 1   
    34    19    20 1   
    35    19    37 1   
    36    20    24 1   
    37    20    38 1   
    38    22    24 2   
    39    23    24 2   
    40    28    40 1   
    41    29    40 1   
    42    30    40 1   
@<TRIPOS>SUBSTRUCTURE
     1 O9Y         1 TEMP              0 ****  ****    0 ROOT
