@<TRIPOS>MOLECULE
O9Y
   40    42     1     0     0
SMALL
abcg2


@<TRIPOS>ATOM
      1 C21         -3.1530     0.6510     0.0570 ca         1 O9Y      -0.317500
      2 C22         -3.9360     0.9680    -1.0460 ca         1 O9Y      -0.019500
      3 C24         -2.9100     3.1440    -1.0900 ca         1 O9Y      -0.056000
      4 C26         -2.2550     1.5620     0.5980 ca         1 O9Y      -0.019500
      5 C02          3.7010    -1.4420    -0.2540 ca         1 O9Y      -0.108300
      6 C03          2.4720    -2.0760    -0.1530 ca         1 O9Y       0.219000
      7 C05          1.3040    -1.3980     0.1510 ca         1 O9Y      -0.188600
      8 C06          1.3620    -0.0280     0.3730 ca         1 O9Y      -0.064000
      9 C07          2.5800     0.6260     0.2950 ca         1 O9Y       0.002800
     10 C08          3.7380    -0.0740    -0.0190 ca         1 O9Y      -0.063000
     11 C11          3.3970     3.9360     0.7410 cc         1 O9Y       0.204900
     12 C12          2.0220     3.9420     1.0040 cc         1 O9Y       0.204900
     13 C14          0.0050    -2.1200     0.2970 c          1 O9Y       0.643700
     14 C23         -3.8100     2.2250    -1.6160 ca         1 O9Y      -0.127500
     15 C25         -2.1340     2.8140     0.0120 ca         1 O9Y      -0.127500
     16 N09          2.6360     2.0130     0.5370 na         1 O9Y       0.345800
     17 N10          3.7530     2.7000     0.4500 nd         1 O9Y      -0.497300
     18 N13          1.5720     2.7110     0.8660 nd         1 O9Y      -0.497300
     19 N16         -1.0080    -1.4970    -0.3670 ns         1 O9Y      -0.383300
     20 N17         -2.2930    -1.9360    -0.2440 n7         1 O9Y      -0.575300
     21 O15         -0.1310    -3.1250     0.9530 o          1 O9Y      -0.501100
     22 O19         -2.6230    -0.9590     2.0440 o          1 O9Y      -0.512500
     23 O20         -4.5990    -1.5020     0.5680 o          1 O9Y      -0.512500
     24 S18         -3.2590    -0.9760     0.7420 sy         1 O9Y       1.126600
     25 H1          -4.6370     0.2560    -1.4600 ha         1 O9Y       0.138500
     26 H2          -2.8160     4.1230    -1.5410 ha         1 O9Y       0.118000
     27 H3          -1.6690     1.3180     1.4740 ha         1 O9Y       0.138500
     28 H4           4.8570    -2.6620    -1.5960 hc         1 O9Y       0.054700
     29 H5           5.8060    -1.5550    -0.6090 hc         1 O9Y       0.054700
     30 H6           5.1260    -3.0140     0.1040 hc         1 O9Y       0.054700
     31 H7           0.4680     0.5220     0.6300 ha         1 O9Y       0.149000
     32 H8           4.6840     0.4450    -0.0830 ha         1 O9Y       0.149000
     33 H9           4.1080     4.7440     0.7530 h4         1 O9Y       0.056600
     34 H10          1.3720     4.7580     1.2770 h4         1 O9Y       0.056600
     35 H11         -4.4170     2.4860    -2.4720 ha         1 O9Y       0.123000
     36 H12         -1.4350     3.5280     0.4230 ha         1 O9Y       0.123000
     37 H13         -0.8090    -0.7610    -1.0330 hn         1 O9Y       0.326500
     38 H14         -2.7290    -2.1960    -1.1230 hn         1 O9Y       0.477000
     39 F04          2.4150    -3.3900    -0.3900 f          1 O9Y      -0.152000
     40 C01          4.9380    -2.2100    -0.6070 c3         1 O9Y      -0.044800
@<TRIPOS>BOND
     1     1     2 ar  
     2     1     4 ar  
     3     1    24 1   
     4     2    14 ar  
     5     2    25 1   
     6     3    14 ar  
     7     3    15 ar  
     8     3    26 1   
     9     4    15 ar  
    10     4    27 1   
    11     5     6 ar  
    12     5    10 ar  
    13     5    40 1   
    14     6     7 ar  
    15     6    39 1   
    16     7     8 ar  
    17     7    13 1   
    18     8     9 ar  
    19     8    31 1   
    20     9    10 ar  
    21     9    16 1   
    22    10    32 1   
    23    11    12 1   
    24    11    17 2   
    25    11    33 1   
    26    12    18 2   
    27    12    34 1   
    28    13    19 1   
    29    13    21 2   
    30    14    35 1   
    31    15    36 1   
    32    16    17 1   
    33    16    18 1   
    34    19    20 1   
    35    19    37 1   
    36    20    24 1   
    37    20    38 1   
    38    22    24 2   
    39    23    24 2   
    40    28    40 1   
    41    29    40 1   
    42    30    40 1   
@<TRIPOS>SUBSTRUCTURE
     1 O9Y         1 TEMP              0 ****  ****    0 ROOT
