@<TRIPOS>MOLECULE
O9Z
   29    31     1     0     0
SMALL
bcc


@<TRIPOS>ATOM
      1 C4          37.4760    36.6460    33.1650 ca         1 O9Z       0.290100
      2 C5          37.5930    35.9680    31.9300 ca         1 O9Z      -0.382600
      3 C6          38.4550    36.4990    30.9680 ca         1 O9Z       0.238100
      4 C7          36.8490    34.7610    31.6510 c          1 O9Z       0.615900
      5 C8          37.0670    34.1940    30.3470 cc         1 O9Z      -0.330200
      6 C10         38.2330    34.2720    28.1290 ca         1 O9Z      -0.095800
      7 C13         38.7910    33.3370    25.5890 ca         1 O9Z       0.162900
      8 C15         38.8110    35.1130    27.1740 ca         1 O9Z      -0.061500
      9 C1          39.1900    37.6490    31.1730 ca         1 O9Z      -0.255000
     10 C2          39.0560    38.2920    32.4010 ca         1 O9Z       0.243100
     11 C3          38.2070    37.7990    33.3950 ca         1 O9Z      -0.327000
     12 C9          37.9290    34.7640    29.4760 cd         1 O9Z       0.222900
     13 O1          38.6030    35.8820    29.7760 os         1 O9Z      -0.216200
     14 O2          36.0720    34.2620    32.4820 o          1 O9Z      -0.599100
     15 O3          36.6670    36.1840    34.1110 oh         1 O9Z      -0.500100
     16 O4          39.7770    39.4010    32.5870 oh         1 O9Z      -0.481100
     17 C11         37.9490    32.9500    27.7790 ca         1 O9Z      -0.061500
     18 C12         38.2240    32.4750    26.5090 ca         1 O9Z      -0.179000
     19 C14         39.0890    34.6500    25.9000 ca         1 O9Z      -0.179000
     20 F1          39.0650    32.8850    24.3610 f          1 O9Z      -0.133900
     21 H1          36.5180    33.3060    30.0670 ha         1 O9Z       0.167000
     22 H2          39.0430    36.1430    27.4070 ha         1 O9Z       0.148500
     23 H3          39.8490    38.0370    30.4080 ha         1 O9Z       0.169000
     24 H4          38.1180    38.3090    34.3470 ha         1 O9Z       0.156000
     25 H5          36.2440    35.3610    33.7610 ho         1 O9Z       0.487000
     26 H6          39.6250    39.7650    33.4670 ho         1 O9Z       0.439000
     27 H7          37.5250    32.2680    28.5030 ha         1 O9Z       0.148500
     28 H8          38.0080    31.4490    26.2440 ha         1 O9Z       0.157500
     29 H9          39.5310    35.3040    25.1590 ha         1 O9Z       0.157500
@<TRIPOS>BOND
     1     1     2 ar  
     2     1    11 ar  
     3     1    15 1   
     4     2     3 ar  
     5     2     4 1   
     6     3     9 ar  
     7     3    13 1   
     8     4     5 1   
     9     4    14 2   
    10     5    12 2   
    11     5    21 1   
    12     6     8 ar  
    13     6    12 1   
    14     6    17 ar  
    15     7    18 ar  
    16     7    19 ar  
    17     7    20 1   
    18     8    19 ar  
    19     8    22 1   
    20     9    10 ar  
    21     9    23 1   
    22    10    11 ar  
    23    10    16 1   
    24    11    24 1   
    25    12    13 1   
    26    15    25 1   
    27    16    26 1   
    28    17    18 ar  
    29    17    27 1   
    30    18    28 1   
    31    19    29 1   
@<TRIPOS>SUBSTRUCTURE
     1 O9Z         1 TEMP              0 ****  ****    0 ROOT
