@<TRIPOS>MOLECULE
O9Z
   29    31     1     0     0
SMALL
No Charge or Current Charge


@<TRIPOS>ATOM
      1 C4          37.5280    36.6560    33.2250 ca         1 O9Z       0.290100
      2 C5          37.6420    35.9830    31.9980 ca         1 O9Z      -0.382600
      3 C6          38.4200    36.5470    30.9800 ca         1 O9Z       0.238100
      4 C7          36.9640    34.6880    31.7360 c          1 O9Z       0.615900
      5 C8          37.1790    34.1170    30.4160 cc         1 O9Z      -0.380200
      6 C10         38.2400    34.2290    28.0880 ca         1 O9Z      -0.095800
      7 C13         38.7840    33.2900    25.4710 ca         1 O9Z       0.198000
      8 C15         39.0680    34.9690    27.2060 ca         1 O9Z      -0.043500
      9 C1          39.0770    37.7660    31.1840 ca         1 O9Z      -0.237000
     10 C2          38.9580    38.4270    32.4080 ca         1 O9Z       0.243100
     11 C3          38.1830    37.8730    33.4310 ca         1 O9Z      -0.309000
     12 C9          37.9590    34.7260    29.4580 cd         1 O9Z       0.222900
     13 O1          38.5550    35.9200    29.7670 os         1 O9Z      -0.216200
     14 O2          36.2690    34.1430    32.5830 o          1 O9Z      -0.599100
     15 O3          36.7830    36.1360    34.2290 oh         1 O9Z      -0.539100
     16 O4          39.5970    39.6100    32.6000 oh         1 O9Z      -0.520100
     17 C11         37.6920    33.0070    27.6260 ca         1 O9Z      -0.043500
     18 C12         37.9640    32.5430    26.3260 ca         1 O9Z      -0.161000
     19 C14         39.3360    34.5000    25.9080 ca         1 O9Z      -0.161000
     20 F1          39.0430    32.8420    24.2240 f          1 O9Z      -0.169000
     21 H1          36.6740    33.1760    30.2530 ha         1 O9Z       0.217000
     22 H2          39.5110    35.9130    27.5160 ha         1 O9Z       0.130500
     23 H3          39.6780    38.1970    30.3890 ha         1 O9Z       0.151000
     24 H4          38.0830    38.3780    34.3870 ha         1 O9Z       0.138000
     25 H5          36.4190    35.2870    33.8680 ho         1 O9Z       0.526000
     26 H6          39.3970    39.9170    33.5090 ho         1 O9Z       0.478000
     27 H7          37.0520    32.4030    28.2620 ha         1 O9Z       0.130500
     28 H8          37.5380    31.6040    25.9810 ha         1 O9Z       0.139500
     29 H9          39.9720    35.0760    25.2400 ha         1 O9Z       0.139500
@<TRIPOS>BOND
     1     1     2 ar  
     2     1    11 ar  
     3     1    15 1   
     4     2     3 ar  
     5     2     4 1   
     6     3     9 ar  
     7     3    13 1   
     8     4     5 1   
     9     4    14 2   
    10     5    12 2   
    11     5    21 1   
    12     6     8 ar  
    13     6    12 1   
    14     6    17 ar  
    15     7    18 ar  
    16     7    19 ar  
    17     7    20 1   
    18     8    19 ar  
    19     8    22 1   
    20     9    10 ar  
    21     9    23 1   
    22    10    11 ar  
    23    10    16 1   
    24    11    24 1   
    25    12    13 1   
    26    15    25 1   
    27    16    26 1   
    28    17    18 ar  
    29    17    27 1   
    30    18    28 1   
    31    19    29 1   
@<TRIPOS>SUBSTRUCTURE
     1 O9Z         1 TEMP              0 ****  ****    0 ROOT
