@<TRIPOS>MOLECULE
OA0
   27    29     1     0     0
SMALL
No Charge or Current Charge


@<TRIPOS>ATOM
      1 O3          17.0330   -46.5210    31.5040 oh         1 OA0      -0.522100
      2 C8          19.3140   -46.0760    32.0450 ca         1 OA0      -0.163000
      3 C7          20.5200   -45.4040    31.7840 ca         1 OA0      -0.022000
      4 C5          21.8540   -43.8010    30.4230 ca         1 OA0       0.089000
      5 C6          20.6400   -44.5090    30.6860 ca         1 OA0      -0.148000
      6 C4          22.8960   -43.7180    31.3860 ca         1 OA0      -0.175000
      7 C3          24.0690   -42.9880    31.1300 ca         1 OA0       0.107100
      8 C2          24.2360   -42.3240    29.9020 ca         1 OA0       0.108100
      9 C1          23.2300   -42.4000    28.9320 ca         1 OA0      -0.019000
     10 O4          19.4670   -43.4410    28.8320 os         1 OA0      -0.432800
     11 C11         19.4890   -44.3280    29.8680 ca         1 OA0       0.203100
     12 O1          25.3810   -41.6170    29.6610 oh         1 OA0      -0.525100
     13 S           20.8500   -43.3050    27.8740 sy         1 OA0       1.313200
     14 C10         18.2850   -44.9910    30.1490 ca         1 OA0      -0.209000
     15 C9          18.1980   -45.8690    31.2320 ca         1 OA0       0.183100
     16 C           22.0520   -43.1360    29.1890 ca         1 OA0      -0.319500
     17 H6          16.3650   -46.2550    30.8370 ho         1 OA0       0.476000
     18 H5          19.2490   -46.7630    32.8850 ha         1 OA0       0.138000
     19 H2          24.7740   -43.4280    32.8690 ho         1 OA0       0.484000
     20 H4          21.3560   -45.6290    32.4380 ha         1 OA0       0.120000
     21 H3          22.7990   -44.1750    32.3620 ha         1 OA0       0.118000
     22 H           23.3800   -41.9000    27.9760 ha         1 OA0       0.153000
     23 H1          25.9350   -41.7040    30.4700 ho         1 OA0       0.486000
     24 H7          17.4210   -44.8090    29.5160 ha         1 OA0       0.143000
     25 O2          25.0530   -42.9110    32.0810 oh         1 OA0      -0.549100
     26 O           21.0550   -44.6030    27.2160 o          1 OA0      -0.518500
     27 O5          20.7670   -42.0530    27.1080 o          1 OA0      -0.518500
@<TRIPOS>BOND
     1     1    15 1   
     2     1    17 1   
     3     2     3 ar  
     4     2    15 ar  
     5     2    18 1   
     6     3     5 ar  
     7     3    20 1   
     8     4     5 1   
     9     4     6 ar  
    10     4    16 ar  
    11     5    11 ar  
    12     6     7 ar  
    13     6    21 1   
    14     7     8 ar  
    15     7    25 1   
    16     8     9 ar  
    17     8    12 1   
    18     9    16 ar  
    19     9    22 1   
    20    10    11 1   
    21    10    13 1   
    22    11    14 ar  
    23    12    23 1   
    24    13    16 1   
    25    13    26 2   
    26    13    27 2   
    27    14    15 ar  
    28    14    24 1   
    29    19    25 1   
@<TRIPOS>SUBSTRUCTURE
     1 OA0         1 TEMP              0 ****  ****    0 ROOT
