@<TRIPOS>MOLECULE
OA0
   27    29     1     0     0
SMALL
abcg2


@<TRIPOS>ATOM
      1 O3          17.0430   -46.5030    31.4400 oh         1 OA0      -0.522100
      2 C8          19.2960   -46.1280    31.9660 ca         1 OA0      -0.163000
      3 C7          20.4920   -45.4840    31.7280 ca         1 OA0      -0.022000
      4 C5          21.8780   -43.8080    30.4540 ca         1 OA0       0.089000
      5 C6          20.6340   -44.5380    30.7090 ca         1 OA0      -0.148000
      6 C4          22.8870   -43.6810    31.4100 ca         1 OA0      -0.175000
      7 C3          24.0450   -42.9740    31.1450 ca         1 OA0       0.107100
      8 C2          24.2310   -42.3390    29.9020 ca         1 OA0       0.108100
      9 C1          23.2390   -42.4380    28.9480 ca         1 OA0      -0.019000
     10 O4          19.5510   -43.3510    28.9250 os         1 OA0      -0.432800
     11 C11         19.5020   -44.2940    29.9320 ca         1 OA0       0.203100
     12 O1          25.3390   -41.6360    29.6240 oh         1 OA0      -0.525100
     13 S           20.8810   -43.3650    27.9910 sy         1 OA0       1.313200
     14 C10         18.2910   -44.9250    30.1380 ca         1 OA0      -0.209000
     15 C9          18.1800   -45.8470    31.1740 ca         1 OA0       0.183100
     16 C           22.0910   -43.1680    29.2330 ca         1 OA0      -0.319500
     17 H6          16.3360   -46.2300    30.8430 ho         1 OA0       0.476000
     18 H5          19.2190   -46.8560    32.7630 ha         1 OA0       0.138000
     19 H2          24.8680   -43.2740    32.8550 ho         1 OA0       0.484000
     20 H4          21.3400   -45.7370    32.3500 ha         1 OA0       0.120000
     21 H3          22.7650   -44.1260    32.3910 ha         1 OA0       0.118000
     22 H           23.3690   -41.9490    27.9910 ha         1 OA0       0.153000
     23 H1          25.9460   -41.6370    30.3740 ho         1 OA0       0.486000
     24 H7          17.4500   -44.6940    29.4950 ha         1 OA0       0.143000
     25 O2          25.0480   -42.8220    32.0220 oh         1 OA0      -0.549100
     26 O           20.9820   -44.6690    27.3810 o          1 OA0      -0.518500
     27 O5          20.7660   -42.1860    27.1690 o          1 OA0      -0.518500
@<TRIPOS>BOND
     1     1    15 1   
     2     1    17 1   
     3     2     3 ar  
     4     2    15 ar  
     5     2    18 1   
     6     3     5 ar  
     7     3    20 1   
     8     4     5 1   
     9     4     6 ar  
    10     4    16 ar  
    11     5    11 ar  
    12     6     7 ar  
    13     6    21 1   
    14     7     8 ar  
    15     7    25 1   
    16     8     9 ar  
    17     8    12 1   
    18     9    16 ar  
    19     9    22 1   
    20    10    11 1   
    21    10    13 1   
    22    11    14 ar  
    23    12    23 1   
    24    13    16 1   
    25    13    26 2   
    26    13    27 2   
    27    14    15 ar  
    28    14    24 1   
    29    19    25 1   
@<TRIPOS>SUBSTRUCTURE
     1 OA0         1 TEMP              0 ****  ****    0 ROOT
