@<TRIPOS>MOLECULE
OA1
   22    23     1     0     0
SMALL
No Charge or Current Charge


@<TRIPOS>ATOM
      1 Br1         -3.8070     0.0900    -1.0730 br         1 OA1      -0.091100
      2 C7          -2.0820    -0.4470    -0.4430 ca         1 OA1      -0.031900
      3 C3          -1.0240     0.4780    -0.4270 ca         1 OA1      -0.037000
      4 C11         -1.8800    -1.7620     0.0020 ca         1 OA1      -0.063000
      5 C8          -0.6150    -2.1490     0.4720 ca         1 OA1      -0.124000
      6 C4           0.4480    -1.2280     0.4900 ca         1 OA1      -0.053000
      7 C1           0.2600     0.0970     0.0250 ca         1 OA1      -0.156600
      8 C2           1.3690     1.1310     0.0350 c          1 OA1       0.529200
      9 O6           1.1000     2.3170     0.1950 o          1 OA1      -0.520100
     10 C5           2.7730     0.6640    -0.0080 cc         1 OA1      -0.046500
     11 O10          3.1970    -0.5570    -0.4440 os         1 OA1      -0.275000
     12 C14          4.5120    -0.5190    -0.1390 cc         1 OA1       0.732900
     13 N15          5.2910    -1.5390    -0.4560 nv         1 OA1      -1.068900
     14 N13          4.9660     0.5520     0.4400 nd         1 OA1      -0.767000
     15 C9           3.8270     1.3330     0.5570 cd         1 OA1       0.369900
     16 H3          -1.2030     1.4930    -0.7760 ha         1 OA1       0.145000
     17 H11         -2.7000    -2.4760    -0.0100 ha         1 OA1       0.131000
     18 H8          -0.4590    -3.1630     0.8330 ha         1 OA1       0.120000
     19 H4           1.4030    -1.5530     0.8940 ha         1 OA1       0.126000
     20 H9           3.8330     2.3050     1.0370 h4         1 OA1       0.060100
     21 H151         4.9440    -2.1320    -1.2000 hn         1 OA1       0.511500
     22 H152         6.2790    -1.3180    -0.4920 hn         1 OA1       0.511500
@<TRIPOS>BOND
     1     1     2 1   
     2     2     3 ar  
     3     2     4 ar  
     4     3     7 ar  
     5     3    16 1   
     6     4     5 ar  
     7     4    17 1   
     8     5     6 ar  
     9     5    18 1   
    10     6     7 ar  
    11     6    19 1   
    12     7     8 1   
    13     8     9 2   
    14     8    10 1   
    15    10    11 1   
    16    10    15 2   
    17    11    12 1   
    18    12    13 1   
    19    12    14 2   
    20    13    21 1   
    21    13    22 1   
    22    14    15 1   
    23    15    20 1   
@<TRIPOS>SUBSTRUCTURE
     1 OA1         1 TEMP              0 ****  ****    0 ROOT
