@<TRIPOS>MOLECULE
OA1
   22    23     1     0     0
SMALL
bcc


@<TRIPOS>ATOM
      1 BR1         -3.5180     0.0310    -1.4550 br         1 OA1      -0.091100
      2 C7          -1.9240    -0.4850    -0.5850 ca         1 OA1      -0.031900
      3 C3          -0.9050     0.4390    -0.4330 ca         1 OA1      -0.055000
      4 C11         -1.7990    -1.7820    -0.1060 ca         1 OA1      -0.081000
      5 C8          -0.6240    -2.1490     0.5330 ca         1 OA1      -0.142000
      6 C4           0.4190    -1.2450     0.6730 ca         1 OA1      -0.071000
      7 C1           0.2820     0.0530     0.1880 ca         1 OA1      -0.156600
      8 C2           1.3340     1.0960     0.3660 c          1 OA1       0.529200
      9 O6           1.0210     2.2500     0.6150 o          1 OA1      -0.520100
     10 C5           2.7230     0.7430     0.2240 cc         1 OA1      -0.002100
     11 O10          3.1270    -0.4960    -0.2340 os         1 OA1      -0.363800
     12 C14          4.4540    -0.4420    -0.2570 cc         1 OA1       0.777300
     13 N15          5.1270    -1.5240    -0.6320 nv         1 OA1      -0.958500
     14 N13          4.9540     0.7060     0.1380 nd         1 OA1      -0.767000
     15 C9           3.8640     1.4540     0.4370 cd         1 OA1       0.369900
     16 H3          -1.0160     1.4510    -0.8010 ha         1 OA1       0.163000
     17 H11         -2.6000    -2.5000    -0.2200 ha         1 OA1       0.149000
     18 H8          -0.5240    -3.1520     0.9250 ha         1 OA1       0.138000
     19 H4           1.3170    -1.5550     1.1890 ha         1 OA1       0.144000
     20 H9           3.9490     2.4680     0.7970 h4         1 OA1       0.060100
     21 H151         4.6550    -2.2960    -1.0740 hn         1 OA1       0.456300
     22 H152         6.1190    -1.4460    -0.7740 hn         1 OA1       0.456300
@<TRIPOS>BOND
     1     1     2 1   
     2     2     3 ar  
     3     2     4 ar  
     4     3     7 ar  
     5     3    16 1   
     6     4     5 ar  
     7     4    17 1   
     8     5     6 ar  
     9     5    18 1   
    10     6     7 ar  
    11     6    19 1   
    12     7     8 1   
    13     8     9 2   
    14     8    10 1   
    15    10    11 1   
    16    10    15 2   
    17    11    12 1   
    18    12    13 1   
    19    12    14 2   
    20    13    21 1   
    21    13    22 1   
    22    14    15 1   
    23    15    20 1   
@<TRIPOS>SUBSTRUCTURE
     1 OA1         1 TEMP              0 ****  ****    0 ROOT
