@<TRIPOS>MOLECULE
OA2
   40    42     1     0     0
SMALL
bcc


@<TRIPOS>ATOM
      1 O2           0.6550    -2.1440     1.8130 o          1 OA2      -0.597100
      2 C1           0.0480    -1.5330     0.9390 c          1 OA2       0.625600
      3 C3          -1.1100    -2.1990     0.3420 cc         1 OA2       0.025900
      4 O4          -2.1150    -1.5540    -0.3450 os         1 OA2      -0.362800
      5 C6          -2.9930    -2.5040    -0.6550 cc         1 OA2       0.752300
      6 N8          -4.1140    -2.1400    -1.2920 nv         1 OA2      -0.937500
      7 N7          -2.6630    -3.6950    -0.2380 nd         1 OA2      -0.760000
      8 C5          -1.4740    -3.5020     0.4050 cd         1 OA2       0.350900
      9 N13          0.4040    -0.2860     0.5410 n          1 OA2      -0.465800
     10 C10          1.4130     0.4410     1.2980 c3         1 OA2       0.146300
     11 C9           2.7570     0.4790     0.6140 ca         1 OA2      -0.107800
     12 C11          3.3120     1.6950     0.2300 ca         1 OA2      -0.117250
     13 C14          4.5500     1.7460    -0.4000 ca         1 OA2      -0.130750
     14 C17          5.2440     0.5740    -0.6600 ca         1 OA2      -0.125500
     15 C15          4.6960    -0.6470    -0.2820 ca         1 OA2      -0.130750
     16 C12          3.4630    -0.6940     0.3510 ca         1 OA2      -0.117250
     17 C16         -0.0060     0.3530    -0.6910 c3         1 OA2       0.146300
     18 C18         -0.9780     1.4950    -0.5130 ca         1 OA2      -0.107800
     19 C19         -1.0560     2.4720    -1.5020 ca         1 OA2      -0.117250
     20 C21         -1.9580     3.5200    -1.3980 ca         1 OA2      -0.130750
     21 C23         -2.7910     3.6130    -0.2900 ca         1 OA2      -0.125500
     22 C22         -2.7130     2.6500     0.7060 ca         1 OA2      -0.130750
     23 C20         -1.8150     1.5960     0.5930 ca         1 OA2      -0.117250
     24 H5          -0.9380    -4.3150     0.8700 h4         1 OA2       0.060100
     25 H81N        -4.1170    -1.2820    -1.8190 hn         1 OA2       0.441800
     26 H82N        -4.6720    -2.8840    -1.6780 hn         1 OA2       0.441800
     27 H101         1.0520     1.4610     1.4500 h1         1 OA2       0.065950
     28 H102         1.5030    -0.0110     2.2840 h1         1 OA2       0.065950
     29 H161         0.8950     0.7320    -1.1830 h1         1 OA2       0.065950
     30 H162        -0.4110    -0.3810    -1.3840 h1         1 OA2       0.065950
     31 H11          2.7730     2.6150     0.4250 ha         1 OA2       0.135500
     32 H12          3.0510    -1.6510     0.6470 ha         1 OA2       0.135500
     33 H14          4.9680     2.7020    -0.6900 ha         1 OA2       0.131000
     34 H17          6.2070     0.6080    -1.1550 ha         1 OA2       0.130500
     35 H15          5.2330    -1.5660    -0.4780 ha         1 OA2       0.131000
     36 H19         -0.4010     2.4150    -2.3650 ha         1 OA2       0.135500
     37 H20         -1.7660     0.8560     1.3820 ha         1 OA2       0.135500
     38 H21         -2.0050     4.2690    -2.1780 ha         1 OA2       0.131000
     39 H23         -3.4920     4.4340    -0.2020 ha         1 OA2       0.130500
     40 H22         -3.3540     2.7150     1.5760 ha         1 OA2       0.131000
@<TRIPOS>BOND
     1     1     2 2   
     2     2     3 1   
     3     2     9 1   
     4     3     4 1   
     5     3     8 2   
     6     4     5 1   
     7     5     6 1   
     8     5     7 2   
     9     6    25 1   
    10     6    26 1   
    11     7     8 1   
    12     8    24 1   
    13     9    10 1   
    14     9    17 1   
    15    10    11 1   
    16    10    27 1   
    17    10    28 1   
    18    11    12 ar  
    19    11    16 ar  
    20    12    13 ar  
    21    12    31 1   
    22    13    14 ar  
    23    13    33 1   
    24    14    15 ar  
    25    14    34 1   
    26    15    16 ar  
    27    15    35 1   
    28    16    32 1   
    29    17    18 1   
    30    17    29 1   
    31    17    30 1   
    32    18    19 ar  
    33    18    23 ar  
    34    19    20 ar  
    35    19    36 1   
    36    20    21 ar  
    37    20    38 1   
    38    21    22 ar  
    39    21    39 1   
    40    22    23 ar  
    41    22    40 1   
    42    23    37 1   
@<TRIPOS>SUBSTRUCTURE
     1 OA2         1 TEMP              0 ****  ****    0 ROOT
