@<TRIPOS>MOLECULE
OA2
   40    42     1     0     0
SMALL
No Charge or Current Charge


@<TRIPOS>ATOM
      1 O2           0.3730    -1.7280     1.8670 o          1 OA2      -0.597100
      2 C1          -0.0270    -1.1000     0.8940 c          1 OA2       0.558600
      3 C3          -1.1460    -1.6400     0.0670 cc         1 OA2      -0.018500
      4 O4          -1.6620    -1.1280    -1.0870 os         1 OA2      -0.274000
      5 C6          -2.6270    -2.0210    -1.3890 cc         1 OA2       0.707900
      6 N8          -3.3370    -1.8740    -2.4960 nv         1 OA2      -1.047900
      7 N7          -2.7690    -3.0430    -0.6000 nd         1 OA2      -0.760000
      8 C5          -1.8050    -2.8050     0.3670 cd         1 OA2       0.350900
      9 N13          0.5810     0.1430     0.5510 n          1 OA2      -0.398800
     10 C10          1.7580     0.6300     1.3130 c3         1 OA2       0.146300
     11 C9           3.0790     0.3350     0.6130 ca         1 OA2      -0.107800
     12 C11          3.7380     1.3420    -0.1210 ca         1 OA2      -0.099250
     13 C14          4.9540     1.0640    -0.7700 ca         1 OA2      -0.112750
     14 C17          5.5180    -0.2200    -0.6900 ca         1 OA2      -0.107500
     15 C15          4.8650    -1.2270     0.0400 ca         1 OA2      -0.112750
     16 C12          3.6500    -0.9510     0.6900 ca         1 OA2      -0.099250
     17 C16          0.0900     1.0480    -0.5170 c3         1 OA2       0.146300
     18 C18         -1.2480     1.7250    -0.2190 ca         1 OA2      -0.107800
     19 C19         -2.1510     1.9840    -1.2710 ca         1 OA2      -0.099250
     20 C21         -3.3850     2.6070    -1.0140 ca         1 OA2      -0.112750
     21 C23         -3.7250     2.9810     0.2960 ca         1 OA2      -0.107500
     22 C22         -2.8280     2.7350     1.3490 ca         1 OA2      -0.112750
     23 C20         -1.5940     2.1120     1.0930 ca         1 OA2      -0.099250
     24 H5          -1.6430    -3.4760     1.2020 h4         1 OA2       0.060100
     25 H81N        -2.9250    -1.2820    -3.2060 hn         1 OA2       0.497000
     26 H82N        -3.7950    -2.7150    -2.8260 hn         1 OA2       0.497000
     27 H101         1.6610     1.7140     1.4610 h1         1 OA2       0.065950
     28 H102         1.7760     0.1890     2.3180 h1         1 OA2       0.065950
     29 H161         0.8310     1.8430    -0.6760 h1         1 OA2       0.065950
     30 H162         0.0460     0.5000    -1.4660 h1         1 OA2       0.065950
     31 H11          3.3100     2.3390    -0.1900 ha         1 OA2       0.117500
     32 H12          3.1500    -1.7370     1.2520 ha         1 OA2       0.117500
     33 H14          5.4590     1.8450    -1.3350 ha         1 OA2       0.113000
     34 H17          6.4590    -0.4340    -1.1920 ha         1 OA2       0.112500
     35 H15          5.3010    -2.2220     0.1030 ha         1 OA2       0.113000
     36 H19         -1.8980     1.6990    -2.2900 ha         1 OA2       0.117500
     37 H20         -0.9100     1.9320     1.9190 ha         1 OA2       0.117500
     38 H21         -4.0770     2.7990    -1.8310 ha         1 OA2       0.113000
     39 H23         -4.6790     3.4630     0.4950 ha         1 OA2       0.112500
     40 H22         -3.0880     3.0270     2.3640 ha         1 OA2       0.113000
@<TRIPOS>BOND
     1     1     2 2   
     2     2     3 1   
     3     2     9 1   
     4     3     4 1   
     5     3     8 2   
     6     4     5 1   
     7     5     6 1   
     8     5     7 2   
     9     6    25 1   
    10     6    26 1   
    11     7     8 1   
    12     8    24 1   
    13     9    10 1   
    14     9    17 1   
    15    10    11 1   
    16    10    27 1   
    17    10    28 1   
    18    11    12 ar  
    19    11    16 ar  
    20    12    13 ar  
    21    12    31 1   
    22    13    14 ar  
    23    13    33 1   
    24    14    15 ar  
    25    14    34 1   
    26    15    16 ar  
    27    15    35 1   
    28    16    32 1   
    29    17    18 1   
    30    17    29 1   
    31    17    30 1   
    32    18    19 ar  
    33    18    23 ar  
    34    19    20 ar  
    35    19    36 1   
    36    20    21 ar  
    37    20    38 1   
    38    21    22 ar  
    39    21    39 1   
    40    22    23 ar  
    41    22    40 1   
    42    23    37 1   
@<TRIPOS>SUBSTRUCTURE
     1 OA2         1 TEMP              0 ****  ****    0 ROOT
