@<TRIPOS>MOLECULE
OA3
   27    28     1     0     0
SMALL
bcc


@<TRIPOS>ATOM
      1 O8          -0.0730    -2.6000    -0.3010 o          1 OA3      -0.576100
      2 C3           0.2980    -1.4350    -0.3300 c          1 OA3       0.617700
      3 C7           1.7490    -1.1020    -0.5580 c6         1 OA3      -0.169400
      4 C11          2.2040     0.2020     0.0990 c6         1 OA3      -0.036000
      5 C38          3.6330     0.5200    -0.3310 c3         1 OA3      -0.086600
      6 C40          2.1580     0.0740     1.6230 c3         1 OA3      -0.086600
      7 C5           1.2700     1.3130    -0.3780 c6         1 OA3      -0.141700
      8 C2          -0.1810     1.0010    -0.1950 ca         1 OA3       0.536600
      9 N6          -1.0040     2.0400    -0.0660 nb         1 OA3      -0.772000
     10 C12         -2.2920     1.7500     0.0660 ca         1 OA3       0.722900
     11 N9          -2.8520     0.5630     0.0920 nb         1 OA3      -0.813000
     12 C4          -2.0410    -0.5020    -0.0290 ca         1 OA3       0.760200
     13 C1          -0.6360    -0.3180    -0.1870 ca         1 OA3      -0.507200
     14 N10         -2.6200    -1.6950     0.0060 nv         1 OA3      -0.945500
     15 H71C         2.3580    -1.9460    -0.2250 hc         1 OA3       0.072200
     16 H72C         1.8850    -1.0260    -1.6450 hc         1 OA3       0.072200
     17 H381         3.7080     0.6320    -1.4140 hc         1 OA3       0.039200
     18 H382         3.9770     1.4490     0.1260 hc         1 OA3       0.039200
     19 H383         4.3170    -0.2740    -0.0260 hc         1 OA3       0.039200
     20 H401         2.8240    -0.7240     1.9600 hc         1 OA3       0.039200
     21 H402         2.4830     1.0010     2.0990 hc         1 OA3       0.039200
     22 H403         1.1590    -0.1530     2.0010 hc         1 OA3       0.039200
     23 H51C         1.4940     2.2590     0.1210 hc         1 OA3       0.072700
     24 H52C         1.4330     1.4870    -1.4490 hc         1 OA3       0.072700
     25 H12         -2.9640     2.5960     0.1680 h5         1 OA3       0.046100
     26 H101        -3.6200    -1.7520     0.0960 hn         1 OA3       0.462800
     27 H102        -2.0720    -2.5340    -0.0930 hn         1 OA3       0.462800
@<TRIPOS>BOND
     1     1     2 2   
     2     2     3 1   
     3     2    13 1   
     4     3     4 1   
     5     3    15 1   
     6     3    16 1   
     7     4     5 1   
     8     4     6 1   
     9     4     7 1   
    10     5    17 1   
    11     5    18 1   
    12     5    19 1   
    13     6    20 1   
    14     6    21 1   
    15     6    22 1   
    16     7     8 1   
    17     7    23 1   
    18     7    24 1   
    19     8     9 ar  
    20     8    13 ar  
    21     9    10 ar  
    22    10    11 ar  
    23    10    25 1   
    24    11    12 ar  
    25    12    13 ar  
    26    12    14 1   
    27    14    26 1   
    28    14    27 1   
@<TRIPOS>SUBSTRUCTURE
     1 OA3         1 TEMP              0 ****  ****    0 ROOT
