@<TRIPOS>MOLECULE
OA3
   27    28     1     0     0
SMALL
No Charge or Current Charge


@<TRIPOS>ATOM
      1 O8          -0.0310    -2.6190    -0.0170 o          1 OA3      -0.576100
      2 C3           0.2860    -1.4620    -0.2700 c          1 OA3       0.617700
      3 C7           1.7400    -1.1080    -0.6030 c6         1 OA3      -0.169400
      4 C11          2.2180     0.1940     0.0930 c6         1 OA3      -0.036000
      5 C38          3.6780     0.5220    -0.3380 c3         1 OA3      -0.086600
      6 C40          2.2230     0.0160     1.6430 c3         1 OA3      -0.086600
      7 C5           1.2690     1.3520    -0.3210 c6         1 OA3      -0.141700
      8 C2          -0.2170     1.0050    -0.2110 ca         1 OA3       0.208300
      9 N6          -1.0580     2.0550    -0.1350 nb         1 OA3      -0.246000
     10 C12         -2.3720     1.7690    -0.0470 ca         1 OA3       0.196900
     11 N9          -2.9230     0.5410    -0.0340 nb         1 OA3      -0.287000
     12 C4          -2.0750    -0.4900    -0.1160 ca         1 OA3       0.431900
     13 C1          -0.6880    -0.3230    -0.2060 ca         1 OA3      -0.376600
     14 N10         -2.6690    -1.7030    -0.1130 nv         1 OA3      -1.055900
     15 H71C         2.3920    -1.9690    -0.4050 hc         1 OA3       0.072200
     16 H72C         1.7560    -0.9060    -1.6820 hc         1 OA3       0.072200
     17 H381         3.7560     0.6500    -1.4250 hc         1 OA3       0.039200
     18 H382         4.0350     1.4490     0.1270 hc         1 OA3       0.039200
     19 H383         4.3710    -0.2790    -0.0530 hc         1 OA3       0.039200
     20 H401         2.8670    -0.8180     1.9480 hc         1 OA3       0.039200
     21 H402         2.5930     0.9180     2.1480 hc         1 OA3       0.039200
     22 H403         1.2200    -0.1850     2.0370 hc         1 OA3       0.039200
     23 H51C         1.4900     2.2460     0.2790 hc         1 OA3       0.072700
     24 H52C         1.4700     1.6380    -1.3630 hc         1 OA3       0.072700
     25 H12         -3.0540     2.6150     0.0170 h5         1 OA3       0.046100
     26 H101        -3.6200    -1.7710     0.2400 hn         1 OA3       0.518000
     27 H102        -2.0620    -2.5090     0.0400 hn         1 OA3       0.518000
@<TRIPOS>BOND
     1     1     2 2   
     2     2     3 1   
     3     2    13 1   
     4     3     4 1   
     5     3    15 1   
     6     3    16 1   
     7     4     5 1   
     8     4     6 1   
     9     4     7 1   
    10     5    17 1   
    11     5    18 1   
    12     5    19 1   
    13     6    20 1   
    14     6    21 1   
    15     6    22 1   
    16     7     8 1   
    17     7    23 1   
    18     7    24 1   
    19     8     9 ar  
    20     8    13 ar  
    21     9    10 ar  
    22    10    11 ar  
    23    10    25 1   
    24    11    12 ar  
    25    12    13 ar  
    26    12    14 1   
    27    14    26 1   
    28    14    27 1   
@<TRIPOS>SUBSTRUCTURE
     1 OA3         1 TEMP              0 ****  ****    0 ROOT
