@<TRIPOS>MOLECULE
OA4
   33    35     1     0     0
SMALL
bcc


@<TRIPOS>ATOM
      1 C1           1.7230     0.9930    -0.1780 ca         1 OA4       0.494600
      2 C2           1.2610    -0.3380    -0.0070 ca         1 OA4      -0.343600
      3 C3           2.3320    -1.3140     0.0390 ca         1 OA4       0.762200
      4 N4           3.5960    -0.9490     0.0730 nb         1 OA4      -0.876000
      5 C5           3.8900     0.3600    -0.0050 ca         1 OA4       0.947900
      6 N6           3.0300     1.3380    -0.1770 nb         1 OA4      -0.818000
      7 N7           2.1210    -2.6410     0.0410 nv         1 OA4      -0.959500
      8 C8           0.7760     2.0230    -0.3470 ca         1 OA4      -0.208300
      9 C9          -0.5580     1.7380    -0.3220 ca         1 OA4      -0.077000
     10 C12         -1.0340     0.4320    -0.0960 cp         1 OA4      -0.083000
     11 C13         -0.1340    -0.6090     0.0960 ca         1 OA4       0.000700
     12 N14          5.2070     0.6670     0.0380 nv         1 OA4      -0.946500
     13 C26         -4.5210    -0.7800    -0.9210 ca         1 OA4      -0.130000
     14 C27         -5.2900    -0.0370    -0.0340 ca         1 OA4      -0.128000
     15 C10         -0.6550    -1.9610     0.5080 c3         1 OA4      -0.064800
     16 C22         -4.6690     0.8500     0.8350 ca         1 OA4      -0.130000
     17 C23         -3.2880     0.9900     0.8190 ca         1 OA4      -0.120000
     18 CAP         -2.5040     0.2420    -0.0610 cp         1 OA4      -0.030000
     19 C25         -3.1410    -0.6400    -0.9350 ca         1 OA4      -0.120000
     20 H8           1.1320     3.0340    -0.4970 ha         1 OA4       0.151000
     21 H71N         2.9330    -3.2250    -0.0710 hn         1 OA4       0.436300
     22 H72N         1.2500    -3.0430    -0.2490 hn         1 OA4       0.436300
     23 H141         5.8450    -0.0300     0.3820 hn         1 OA4       0.433300
     24 H142         5.4630     1.6260     0.1990 hn         1 OA4       0.433300
     25 H9          -1.2760     2.5360    -0.4700 ha         1 OA4       0.135000
     26 H101        -0.0410    -2.4040     1.2900 hc         1 OA4       0.048700
     27 H102        -1.6640    -1.8830     0.9040 hc         1 OA4       0.048700
     28 H103        -0.7100    -2.6680    -0.3250 hc         1 OA4       0.048700
     29 H27         -6.3670    -0.1470    -0.0220 ha         1 OA4       0.130000
     30 H25         -2.5510    -1.2120    -1.6400 ha         1 OA4       0.132500
     31 H22         -5.2600     1.4320     1.5300 ha         1 OA4       0.130500
     32 H23         -2.8110     1.6800     1.5050 ha         1 OA4       0.132500
     33 H26         -4.9990    -1.4660    -1.6090 ha         1 OA4       0.130500
@<TRIPOS>BOND
     1     1     2 ar  
     2     1     6 ar  
     3     1     8 ar  
     4     2     3 ar  
     5     2    11 ar  
     6     3     4 ar  
     7     3     7 1   
     8     4     5 ar  
     9     5     6 ar  
    10     5    12 1   
    11     7    21 1   
    12     7    22 1   
    13     8     9 ar  
    14     8    20 1   
    15     9    10 ar  
    16     9    25 1   
    17    10    11 ar  
    18    10    18 1   
    19    11    15 1   
    20    12    23 1   
    21    12    24 1   
    22    13    14 ar  
    23    13    19 ar  
    24    13    33 1   
    25    14    16 ar  
    26    14    29 1   
    27    15    26 1   
    28    15    27 1   
    29    15    28 1   
    30    16    17 ar  
    31    16    31 1   
    32    17    18 ar  
    33    17    32 1   
    34    18    19 ar  
    35    19    30 1   
@<TRIPOS>SUBSTRUCTURE
     1 OA4         1 TEMP              0 ****  ****    0 ROOT
