@<TRIPOS>MOLECULE
OA4
   33    35     1     0     0
SMALL
No Charge or Current Charge


@<TRIPOS>ATOM
      1 C1           1.7400     1.0110    -0.1470 ca         1 OA4       0.101000
      2 C2           1.2970    -0.3290     0.0500 ca         1 OA4      -0.213000
      3 C3           2.3430    -1.2980     0.1440 ca         1 OA4       0.433900
      4 N4           3.6380    -0.9820     0.0810 nb         1 OA4      -0.350000
      5 C5           3.9140     0.3070    -0.0840 ca         1 OA4       0.421900
      6 N6           3.0520     1.3150    -0.2060 nb         1 OA4      -0.292000
      7 N7           2.1870    -2.6420     0.2480 nv         1 OA4      -1.069900
      8 C8           0.8080     2.0460    -0.2870 ca         1 OA4      -0.125000
      9 C9          -0.5610     1.7810    -0.2530 ca         1 OA4      -0.059000
     10 C12         -1.0450     0.4730    -0.0530 cp         1 OA4      -0.083000
     11 C13         -0.1140    -0.5980     0.1360 ca         1 OA4       0.000700
     12 N14          5.2250     0.6270    -0.1420 nv         1 OA4      -1.056900
     13 C26         -4.5470    -0.7380    -1.0110 ca         1 OA4      -0.112000
     14 C27         -5.3430    -0.0490    -0.0810 ca         1 OA4      -0.110000
     15 C10         -0.6590    -1.9920     0.4830 c3         1 OA4      -0.064800
     16 C22         -4.7430     0.8090     0.8560 ca         1 OA4      -0.112000
     17 C23         -3.3470     0.9730     0.8650 ca         1 OA4      -0.102000
     18 CAP         -2.5270     0.2790    -0.0560 cp         1 OA4      -0.030000
     19 C25         -3.1520    -0.5720    -1.0010 ca         1 OA4      -0.102000
     20 H8           1.1510     3.0660    -0.4410 ha         1 OA4       0.133000
     21 H71N         3.0090    -3.2180     0.0870 hn         1 OA4       0.491500
     22 H72N         1.2950    -3.0460    -0.0130 hn         1 OA4       0.491500
     23 H141         5.8980    -0.0660     0.1740 hn         1 OA4       0.488500
     24 H142         5.4870     1.6030    -0.0340 hn         1 OA4       0.488500
     25 H9          -1.2630     2.6000    -0.3890 ha         1 OA4       0.117000
     26 H101        -0.1410    -2.4210     1.3470 hc         1 OA4       0.048700
     27 H102        -1.7130    -1.9780     0.7780 hc         1 OA4       0.048700
     28 H103        -0.5740    -2.6780    -0.3680 hc         1 OA4       0.048700
     29 H27         -6.4240    -0.1760    -0.0890 ha         1 OA4       0.112000
     30 H25         -2.5440    -1.1020    -1.7300 ha         1 OA4       0.114500
     31 H22         -5.3590     1.3460     1.5740 ha         1 OA4       0.112500
     32 H23         -2.8920     1.6390     1.5940 ha         1 OA4       0.114500
     33 H26         -5.0110    -1.3980    -1.7420 ha         1 OA4       0.112500
@<TRIPOS>BOND
     1     1     2 ar  
     2     1     6 ar  
     3     1     8 ar  
     4     2     3 ar  
     5     2    11 ar  
     6     3     4 ar  
     7     3     7 1   
     8     4     5 ar  
     9     5     6 ar  
    10     5    12 1   
    11     7    21 1   
    12     7    22 1   
    13     8     9 ar  
    14     8    20 1   
    15     9    10 ar  
    16     9    25 1   
    17    10    11 ar  
    18    10    18 1   
    19    11    15 1   
    20    12    23 1   
    21    12    24 1   
    22    13    14 ar  
    23    13    19 ar  
    24    13    33 1   
    25    14    16 ar  
    26    14    29 1   
    27    15    26 1   
    28    15    27 1   
    29    15    28 1   
    30    16    17 ar  
    31    16    31 1   
    32    17    18 ar  
    33    17    32 1   
    34    18    19 ar  
    35    19    30 1   
@<TRIPOS>SUBSTRUCTURE
     1 OA4         1 TEMP              0 ****  ****    0 ROOT
