@<TRIPOS>MOLECULE
OA5
   31    32     1     0     0
SMALL
bcc


@<TRIPOS>ATOM
      1 N10          4.6950     1.9500     0.7460 nv         1 OA5      -0.959000
      2 C6           3.9650     0.8950     0.3790 ca         1 OA5       0.985900
      3 N8           4.5840    -0.2740     0.2420 nb         1 OA5      -0.906000
      4 C5           3.7960    -1.2830    -0.1340 ca         1 OA5       0.985900
      5 N9           4.3570    -2.4850    -0.2760 nv         1 OA5      -0.959000
      6 N2           2.4810    -1.1890    -0.3720 nb         1 OA5      -0.892000
      7 N3           2.6550     1.1030     0.1710 nb         1 OA5      -0.892000
      8 C1           1.9950     0.0260    -0.1990 ca         1 OA5       0.961300
      9 O4           0.6950     0.1200    -0.4360 os         1 OA5      -0.406100
     10 C7           0.0590     1.3850    -0.2830 c3         1 OA5       0.153400
     11 C11         -1.3910     1.2170    -0.6450 c3         1 OA5       0.136400
     12 O12         -1.9910     0.3550     0.3010 os         1 OA5      -0.312900
     13 C13         -3.3010     0.0600     0.1730 ca         1 OA5       0.144100
     14 C15         -3.8340    -0.8030     1.1330 ca         1 OA5      -0.189500
     15 C17         -5.1700    -1.1590     1.0800 ca         1 OA5      -0.092500
     16 C18         -5.9970    -0.6670     0.0740 ca         1 OA5      -0.167000
     17 C16         -5.4630     0.1890    -0.8750 ca         1 OA5      -0.092500
     18 C14         -4.1220     0.5580    -0.8360 ca         1 OA5      -0.189500
     19 H101         5.6750     1.8490     0.9410 hn         1 OA5       0.451800
     20 H102         4.2610     2.8450     0.8870 hn         1 OA5       0.451800
     21 H91N         5.3490    -2.6000    -0.1660 hn         1 OA5       0.451800
     22 H92N         3.8140    -3.2620    -0.6090 hn         1 OA5       0.451800
     23 H71C         0.1650     1.7500     0.7410 h1         1 OA5       0.061700
     24 H72C         0.5030     2.1280    -0.9490 h1         1 OA5       0.061700
     25 H111        -1.8600     2.2070    -0.6310 h1         1 OA5       0.046700
     26 H112        -1.4880     0.8170    -1.6600 h1         1 OA5       0.046700
     27 H15         -3.1930    -1.1920     1.9140 ha         1 OA5       0.138500
     28 H14         -3.7410     1.2290    -1.5950 ha         1 OA5       0.138500
     29 H17         -5.5700    -1.8270     1.8330 ha         1 OA5       0.129000
     30 H18         -7.0400    -0.9490     0.0340 ha         1 OA5       0.132000
     31 H16         -6.0900     0.5830    -1.6640 ha         1 OA5       0.129000
@<TRIPOS>BOND
     1     1     2 1   
     2     1    19 1   
     3     1    20 1   
     4     2     3 ar  
     5     2     7 ar  
     6     3     4 ar  
     7     4     5 1   
     8     4     6 ar  
     9     5    21 1   
    10     5    22 1   
    11     6     8 ar  
    12     7     8 ar  
    13     8     9 1   
    14     9    10 1   
    15    10    11 1   
    16    10    23 1   
    17    10    24 1   
    18    11    12 1   
    19    11    25 1   
    20    11    26 1   
    21    12    13 1   
    22    13    14 ar  
    23    13    18 ar  
    24    14    15 ar  
    25    14    27 1   
    26    15    16 ar  
    27    15    29 1   
    28    16    17 ar  
    29    16    30 1   
    30    17    18 ar  
    31    17    31 1   
    32    18    28 1   
@<TRIPOS>SUBSTRUCTURE
     1 OA5         1 TEMP              0 ****  ****    0 ROOT
