@<TRIPOS>MOLECULE
OA5
   31    32     1     0     0
SMALL
No Charge or Current Charge


@<TRIPOS>ATOM
      1 N10          4.8040     1.9100     0.8560 nv         1 OA5      -1.069400
      2 C6           4.0750     0.8650     0.4240 ca         1 OA5       0.459900
      3 N8           4.7200    -0.2920     0.2840 nb         1 OA5      -0.380000
      4 C5           3.9340    -1.2780    -0.1460 ca         1 OA5       0.459900
      5 N9           4.5150    -2.4800    -0.3130 nv         1 OA5      -1.069400
      6 N2           2.6330    -1.2000    -0.4300 nb         1 OA5      -0.366000
      7 N3           2.7840     1.0960     0.1840 nb         1 OA5      -0.366000
      8 C1           2.0890     0.0200    -0.2490 ca         1 OA5       0.435300
      9 O4           0.7480     0.1440    -0.5310 os         1 OA5      -0.429300
     10 C7           0.0590     1.4050    -0.3710 c3         1 OA5       0.176600
     11 C11         -1.4240     1.2170    -0.7590 c3         1 OA5       0.159600
     12 O12         -2.0700     0.4180     0.2540 os         1 OA5      -0.336100
     13 C13         -3.4060     0.0820     0.1840 ca         1 OA5       0.144100
     14 C15         -3.9400    -0.7020     1.2210 ca         1 OA5      -0.171500
     15 C17         -5.2940    -1.0760     1.2060 ca         1 OA5      -0.074500
     16 C18         -6.1220    -0.6650     0.1480 ca         1 OA5      -0.149000
     17 C16         -5.5970     0.1190    -0.8930 ca         1 OA5      -0.074500
     18 C14         -4.2410     0.4940    -0.8780 ca         1 OA5      -0.171500
     19 H101         5.7060     1.7100     1.2810 hn         1 OA5       0.507000
     20 H102         4.3070     2.7220     1.2120 hn         1 OA5       0.507000
     21 H91N         5.5310    -2.5090    -0.3510 hn         1 OA5       0.507000
     22 H92N         4.0220    -3.1740    -0.8680 hn         1 OA5       0.507000
     23 H71C         0.1210     1.7630     0.6650 h1         1 OA5       0.061700
     24 H72C         0.5010     2.1690    -1.0250 h1         1 OA5       0.061700
     25 H111        -1.8990     2.2030    -0.8270 h1         1 OA5       0.046700
     26 H112        -1.4850     0.7330    -1.7420 h1         1 OA5       0.046700
     27 H15         -3.2990    -1.0200     2.0400 ha         1 OA5       0.120500
     28 H14         -3.8600     1.1000    -1.6950 ha         1 OA5       0.120500
     29 H17         -5.7010    -1.6830     2.0130 ha         1 OA5       0.111000
     30 H18         -7.1710    -0.9530     0.1350 ha         1 OA5       0.114000
     31 H16         -6.2400     0.4360    -1.7110 ha         1 OA5       0.111000
@<TRIPOS>BOND
     1     1     2 1   
     2     1    19 1   
     3     1    20 1   
     4     2     3 ar  
     5     2     7 ar  
     6     3     4 ar  
     7     4     5 1   
     8     4     6 ar  
     9     5    21 1   
    10     5    22 1   
    11     6     8 ar  
    12     7     8 ar  
    13     8     9 1   
    14     9    10 1   
    15    10    11 1   
    16    10    23 1   
    17    10    24 1   
    18    11    12 1   
    19    11    25 1   
    20    11    26 1   
    21    12    13 1   
    22    13    14 ar  
    23    13    18 ar  
    24    14    15 ar  
    25    14    27 1   
    26    15    16 ar  
    27    15    29 1   
    28    16    17 ar  
    29    16    30 1   
    30    17    18 ar  
    31    17    31 1   
    32    18    28 1   
@<TRIPOS>SUBSTRUCTURE
     1 OA5         1 TEMP              0 ****  ****    0 ROOT
