@<TRIPOS>MOLECULE
OAA
   11    10     1     0     0
SMALL
No Charge or Current Charge


@<TRIPOS>ATOM
      1 O1          12.7990    -8.5380    -1.6120 o          1 OAA      -0.754500
      2 O2          13.8440    -9.3650     0.0770 o          1 OAA      -0.754500
      3 O4          15.4520    -6.0750    -2.9460 o          1 OAA      -0.739000
      4 O5          13.8580    -4.8500    -2.1640 o          1 OAA      -0.739000
      5 O3          15.9000    -6.6810    -0.0360 o          1 OAA      -0.636100
      6 C1          13.3570    -8.4280    -0.5330 c          1 OAA       0.737000
      7 C2          13.5240    -7.0360     0.0380 c3         1 OAA      -0.317400
      8 C3          14.8120    -6.5090    -0.5990 c          1 OAA       0.489100
      9 C4          14.6820    -5.7560    -2.0410 c          1 OAA       0.664000
     10 H21         12.7090    -6.4020    -0.3310 hc         1 OAA       0.025200
     11 H22         13.6760    -7.0670     1.1240 hc         1 OAA       0.025200
@<TRIPOS>BOND
     1     1     6 1   
     2     2     6 1   
     3     3     9 1   
     4     4     9 1   
     5     5     8 2   
     6     6     7 1   
     7     7     8 1   
     8     7    10 1   
     9     7    11 1   
    10     8     9 1   
@<TRIPOS>SUBSTRUCTURE
     1 OAA         1 TEMP              0 ****  ****    0 ROOT
