@<TRIPOS>MOLECULE
OAA
   11    10     1     0     0
SMALL
abcg2


@<TRIPOS>ATOM
      1 O1          13.8180    -8.7110    -1.6500 o          1 OAA      -0.754500
      2 O2          12.5140    -9.0780     0.1260 o          1 OAA      -0.754500
      3 O4          15.2960    -5.6610    -2.9620 o          1 OAA      -0.739000
      4 O5          13.2860    -5.2890    -2.0510 o          1 OAA      -0.739000
      5 O3          16.0610    -6.5510    -0.4730 o          1 OAA      -0.636100
      6 C1          13.3320    -8.4210    -0.5380 c          1 OAA       0.737000
      7 C2          13.8150    -7.0850     0.0870 c3         1 OAA      -0.317400
      8 C3          14.8860    -6.4790    -0.7700 c          1 OAA       0.489100
      9 C4          14.4450    -5.7430    -2.0630 c          1 OAA       0.664000
     10 H21         12.9620    -6.4120     0.1780 hc         1 OAA       0.025200
     11 H22         14.1970    -7.2750     1.0930 hc         1 OAA       0.025200
@<TRIPOS>BOND
     1     1     6 1   
     2     2     6 1   
     3     3     9 1   
     4     4     9 1   
     5     5     8 2   
     6     6     7 1   
     7     7     8 1   
     8     7    10 1   
     9     7    11 1   
    10     8     9 1   
@<TRIPOS>SUBSTRUCTURE
     1 OAA         1 TEMP              0 ****  ****    0 ROOT
