@<TRIPOS>MOLECULE
OAC
   24    24     1     0     0
SMALL
bcc


@<TRIPOS>ATOM
      1 O           -0.3620    -1.3600    -3.1200 o          1 OAC      -0.839300
      2 C           -0.3400    -0.1360    -2.8850 c          1 OAC       0.929600
      3 CA          -0.2200     0.3200    -1.4110 c3         1 OAC      -0.194700
      4 CB1         -0.2550    -0.8520    -0.4260 c3         1 OAC      -0.022100
      5 CB2          1.0170     1.1970    -1.2340 c3         1 OAC      -0.067100
      6 CG          -0.2700    -0.4290     1.0200 ca         1 OAC      -0.130300
      7 CD1         -1.4780    -0.0650     1.6120 ca         1 OAC      -0.097000
      8 CE1         -1.5630     0.3510     2.9320 ca         1 OAC      -0.176000
      9 CZ          -0.4060     0.4050     3.6980 ca         1 OAC      -0.120000
     10 CE2          0.8110     0.0480     3.1410 ca         1 OAC      -0.177000
     11 CD2          0.8840    -0.3650     1.8120 ca         1 OAC       0.139100
     12 OH           2.1140    -0.6940     1.3520 oh         1 OAC      -0.519100
     13 OXT         -0.4020     0.7790    -3.7330 o          1 OAC      -0.839300
     14 HA          -1.0940     0.9530    -1.2050 hc         1 OAC       0.032700
     15 HB11        -1.1500    -1.4470    -0.6150 hc         1 OAC       0.051200
     16 HB12         0.5740    -1.5340    -0.6450 hc         1 OAC       0.051200
     17 HB21         1.9370     0.6330    -1.4120 hc         1 OAC       0.016033
     18 HB22         1.0010     2.0260    -1.9380 hc         1 OAC       0.016033
     19 HB23         1.0740     1.6210    -0.2300 hc         1 OAC       0.016033
     20 HD1         -2.3800    -0.1180     1.0120 ha         1 OAC       0.131000
     21 HE1         -2.5190     0.6220     3.3580 ha         1 OAC       0.117000
     22 HZ          -0.4460     0.7230     4.7320 ha         1 OAC       0.112000
     23 HE2          1.7170     0.0850     3.7330 ha         1 OAC       0.128000
     24 HH           2.0690    -0.9870     0.4360 ho         1 OAC       0.442000
@<TRIPOS>BOND
     1     1     2 1   
     2     2     3 1   
     3     2    13 1   
     4     3     4 1   
     5     3     5 1   
     6     3    14 1   
     7     4     6 1   
     8     4    15 1   
     9     4    16 1   
    10     5    17 1   
    11     5    18 1   
    12     5    19 1   
    13     6     7 ar  
    14     6    11 ar  
    15     7     8 ar  
    16     7    20 1   
    17     8     9 ar  
    18     8    21 1   
    19     9    10 ar  
    20     9    22 1   
    21    10    11 ar  
    22    10    23 1   
    23    11    12 1   
    24    12    24 1   
@<TRIPOS>SUBSTRUCTURE
     1 OAC         1 TEMP              0 ****  ****    0 ROOT
