@<TRIPOS>MOLECULE
OAC
   24    24     1     0     0
SMALL
No Charge or Current Charge


@<TRIPOS>ATOM
      1 O            0.4610    -0.9090    -3.3540 o          1 OAC      -0.734000
      2 C           -0.3670    -0.1400    -2.8860 c          1 OAC       0.719000
      3 CA          -0.1850     0.3470    -1.4290 c3         1 OAC      -0.194700
      4 CB1         -0.2590    -0.8430    -0.4340 c3         1 OAC      -0.022100
      5 CB2          1.1100     1.1850    -1.2770 c3         1 OAC      -0.067100
      6 CG          -0.2800    -0.4070     1.0360 ca         1 OAC      -0.130300
      7 CD1         -1.4950     0.0530     1.5850 ca         1 OAC      -0.079000
      8 CE1         -1.5670     0.4550     2.9290 ca         1 OAC      -0.158000
      9 CZ          -0.4250     0.4010     3.7420 ca         1 OAC      -0.102000
     10 CE2          0.7900    -0.0530     3.2070 ca         1 OAC      -0.159000
     11 CD2          0.8690    -0.4540     1.8630 ca         1 OAC       0.139100
     12 OH           2.0720    -0.8790     1.3800 oh         1 OAC      -0.558100
     13 OXT         -1.3380     0.2610    -3.5100 o          1 OAC      -0.734000
     14 HA          -1.0250     1.0150    -1.2010 hc         1 OAC       0.032700
     15 HB11        -1.1750    -1.4090    -0.6470 hc         1 OAC       0.051200
     16 HB12         0.5590    -1.5450    -0.6350 hc         1 OAC       0.051200
     17 HB21         2.0010     0.5680    -1.4440 hc         1 OAC       0.016033
     18 HB22         1.1200     2.0040    -2.0060 hc         1 OAC       0.016033
     19 HB23         1.1770     1.6270    -0.2760 hc         1 OAC       0.016033
     20 HD1         -2.3890     0.0980     0.9660 ha         1 OAC       0.113000
     21 HE1         -2.5110     0.8070     3.3410 ha         1 OAC       0.099000
     22 HZ          -0.4810     0.7120     4.7840 ha         1 OAC       0.094000
     23 HE2          1.6760    -0.0920     3.8350 ha         1 OAC       0.110000
     24 HH           1.9750    -1.0240     0.4160 ho         1 OAC       0.481000
@<TRIPOS>BOND
     1     1     2 1   
     2     2     3 1   
     3     2    13 1   
     4     3     4 1   
     5     3     5 1   
     6     3    14 1   
     7     4     6 1   
     8     4    15 1   
     9     4    16 1   
    10     5    17 1   
    11     5    18 1   
    12     5    19 1   
    13     6     7 ar  
    14     6    11 ar  
    15     7     8 ar  
    16     7    20 1   
    17     8     9 ar  
    18     8    21 1   
    19     9    10 ar  
    20     9    22 1   
    21    10    11 ar  
    22    10    23 1   
    23    11    12 1   
    24    12    24 1   
@<TRIPOS>SUBSTRUCTURE
     1 OAC         1 TEMP              0 ****  ****    0 ROOT
