@<TRIPOS>MOLECULE
OAE
   44    45     1     0     0
SMALL
abcg2


@<TRIPOS>ATOM
      1 O           -1.4640    -2.4950     1.3530 o          1 OAE      -0.718000
      2 C1          -4.4440    -0.1750     0.7890 c3         1 OAE      -0.065600
      3 N1           1.1300    -0.5300    -0.1450 ns         1 OAE      -0.439900
      4 O1          -4.7910     2.1190    -1.6750 o          1 OAE      -0.733000
      5 S1          -2.1020     0.7220     1.9290 ss         1 OAE      -0.554000
      6 C2          -3.8320     1.3250    -1.7290 c          1 OAE       0.731000
      7 N2           4.1770    -2.0800    -1.2080 n8         1 OAE      -0.969200
      8 O2          -3.5500     0.5590    -2.6680 o          1 OAE      -0.733000
      9 C3           2.2530    -1.2360     0.0020 c          1 OAE       0.610100
     10 N3          -1.8380     0.3430    -0.6080 n7         1 OAE      -0.832400
     11 O3           2.4380    -2.0340     0.9110 o          1 OAE      -0.628100
     12 C4           3.3620    -0.9040    -0.9970 c3         1 OAE       0.110800
     13 O4          -0.5320    -2.6070    -0.6710 o          1 OAE      -0.718000
     14 C5           4.0900     0.3240    -0.4730 ca         1 OAE      -0.099300
     15 C6          -3.5570     1.0620     0.8390 c5         1 OAE       0.174000
     16 C7           3.8840     1.5690    -1.0590 ca         1 OAE      -0.098500
     17 C8           4.5350     2.6980    -0.5790 ca         1 OAE      -0.117500
     18 C9           5.4000     2.5940     0.5010 ca         1 OAE      -0.127000
     19 C10          5.6100     1.3550     1.0950 ca         1 OAE      -0.117500
     20 C11          4.9610     0.2290     0.6110 ca         1 OAE      -0.098500
     21 C12         -2.8770     1.3410    -0.5160 c5         1 OAE       0.040500
     22 C13         -0.9590     0.4700     0.5220 c5         1 OAE       0.368500
     23 C14         -0.0220    -0.7290     0.7100 c3         1 OAE      -0.029300
     24 C15         -0.7420    -2.0750     0.4320 c          1 OAE       0.744000
     25 C16         -4.3060     2.2570     1.4020 c3         1 OAE      -0.065600
     26 H1          -4.7910    -0.4420     1.7890 hc         1 OAE       0.034200
     27 H1A         -5.3250     0.0130     0.1710 hc         1 OAE       0.034200
     28 H1B         -3.8960    -1.0240     0.3860 hc         1 OAE       0.034200
     29 HN1          1.0260     0.0200    -0.9820 hn         1 OAE       0.293500
     30 HN3         -1.3500     0.3830    -1.4930 hn         1 OAE       0.440000
     31 H4           2.9050    -0.6340    -1.9550 h1         1 OAE       0.073700
     32 H7           3.2130     1.6570    -1.9070 ha         1 OAE       0.118000
     33 H8           4.3690     3.6580    -1.0520 ha         1 OAE       0.099000
     34 H9           5.9120     3.4710     0.8760 ha         1 OAE       0.094000
     35 H10          6.2820     1.2670     1.9390 ha         1 OAE       0.099000
     36 H11          5.1350    -0.7300     1.0860 ha         1 OAE       0.118000
     37 H12         -2.4610     2.3660    -0.4560 h1         1 OAE      -0.005300
     38 H13         -0.3290     1.3740     0.4770 h2         1 OAE      -0.015300
     39 H14          0.3330    -0.7200     1.7440 h1         1 OAE       0.059700
     40 H16         -3.6730     3.1450     1.4200 hc         1 OAE       0.034200
     41 H16A        -5.1810     2.4740     0.7920 hc         1 OAE       0.034200
     42 H16B        -4.6440     2.0650     2.4220 hc         1 OAE       0.034200
     43 HN2          5.0100    -1.8270    -1.7240 hn         1 OAE       0.391500
     44 HN2A         4.4840    -2.4560    -0.3210 hn         1 OAE       0.391500
@<TRIPOS>BOND
     1     1    24 1   
     2     2    15 1   
     3     2    26 1   
     4     2    27 1   
     5     2    28 1   
     6     3     9 1   
     7     3    23 1   
     8     3    29 1   
     9     4     6 1   
    10     5    15 1   
    11     5    22 1   
    12     6     8 1   
    13     6    21 1   
    14     7    12 1   
    15     7    43 1   
    16     7    44 1   
    17     9    11 2   
    18     9    12 1   
    19    10    21 1   
    20    10    22 1   
    21    10    30 1   
    22    12    14 1   
    23    12    31 1   
    24    13    24 1   
    25    14    16 ar  
    26    14    20 ar  
    27    15    21 1   
    28    15    25 1   
    29    16    17 ar  
    30    16    32 1   
    31    17    18 ar  
    32    17    33 1   
    33    18    19 ar  
    34    18    34 1   
    35    19    20 ar  
    36    19    35 1   
    37    20    36 1   
    38    21    37 1   
    39    22    23 1   
    40    22    38 1   
    41    23    24 1   
    42    23    39 1   
    43    25    40 1   
    44    25    41 1   
    45    25    42 1   
@<TRIPOS>SUBSTRUCTURE
     1 OAE         1 TEMP              0 ****  ****    0 ROOT
