@<TRIPOS>MOLECULE
OAE
   44    45     1     0     0
SMALL
No Charge or Current Charge


@<TRIPOS>ATOM
      1 O           -1.8140    -3.5030    -0.7500 o          1 OAE      -0.718000
      2 C1          -4.2380     0.9690    -0.2090 c3         1 OAE      -0.065600
      3 N1           1.0950    -1.7130    -0.2010 ns         1 OAE      -0.439900
      4 O1          -2.1850     4.0010     0.4500 o          1 OAE      -0.733000
      5 S1          -2.7460    -0.8270     1.2640 ss         1 OAE      -0.554000
      6 C2          -2.0330     2.9860    -0.2190 c          1 OAE       0.731000
      7 N2           4.7480    -1.5640     0.8140 n8         1 OAE      -0.969200
      8 O2          -1.9440     3.0460    -1.4410 o          1 OAE      -0.733000
      9 C3           2.1340    -1.4940     0.6800 c          1 OAE       0.610100
     10 N3          -1.0540     0.5190    -0.1990 n7         1 OAE      -0.832400
     11 O3           1.9620    -1.4910     1.8960 o          1 OAE      -0.628100
     12 C4           3.5310    -1.2320     0.0010 c3         1 OAE       0.110800
     13 O4          -0.8730    -2.1620    -2.1330 o          1 OAE      -0.718000
     14 C5           3.6220     0.2130    -0.4870 ca         1 OAE      -0.099300
     15 C6          -3.1740     0.9580     0.9220 c5         1 OAE       0.174000
     16 C7           3.8990     0.4880    -1.8430 ca         1 OAE      -0.098500
     17 C8           3.9710     1.8160    -2.2990 ca         1 OAE      -0.117500
     18 C9           3.7680     2.8800    -1.4050 ca         1 OAE      -0.127000
     19 C10          3.4930     2.6160    -0.0540 ca         1 OAE      -0.117500
     20 C11          3.4200     1.2890     0.4050 ca         1 OAE      -0.098500
     21 C12         -1.7980     1.6060     0.5350 c5         1 OAE       0.040500
     22 C13         -0.9820    -0.5940     0.7530 c5         1 OAE       0.368500
     23 C14         -0.3320    -1.8850     0.1860 c3         1 OAE      -0.029300
     24 C15         -1.1480    -2.5010    -0.9870 c          1 OAE       0.744000
     25 C16         -3.7900     1.5680     2.2050 c3         1 OAE      -0.065600
     26 H1          -5.1200     0.3820     0.0730 hc         1 OAE       0.034200
     27 H1A         -4.5810     1.9860    -0.4330 hc         1 OAE       0.034200
     28 H1B         -3.8390     0.5390    -1.1360 hc         1 OAE       0.034200
     29 HN1          1.3150    -1.6890    -1.1900 hn         1 OAE       0.293500
     30 HN3         -0.1030     0.8280    -0.4230 hn         1 OAE       0.440000
     31 H4           3.5530    -1.8880    -0.8810 h1         1 OAE       0.073700
     32 H7           4.0580    -0.3270    -2.5460 ha         1 OAE       0.118000
     33 H8           4.1850     2.0190    -3.3460 ha         1 OAE       0.099000
     34 H9           3.8230     3.9060    -1.7590 ha         1 OAE       0.094000
     35 H10          3.3350     3.4390     0.6400 ha         1 OAE       0.099000
     36 H11          3.2060     1.0990     1.4540 ha         1 OAE       0.118000
     37 H12         -1.2310     1.8430     1.4480 h1         1 OAE      -0.005300
     38 H13         -0.4230    -0.2730     1.6400 h2         1 OAE      -0.015300
     39 H14         -0.3560    -2.6250     0.9950 h1         1 OAE       0.059700
     40 H16         -3.0800     1.5320     3.0400 hc         1 OAE       0.034200
     41 H16A        -4.0720     2.6160     2.0540 hc         1 OAE       0.034200
     42 H16B        -4.6900     1.0230     2.5120 hc         1 OAE       0.034200
     43 HN2          5.5830    -1.2590     0.3010 hn         1 OAE       0.391500
     44 HN2A         4.7500    -0.9740     1.6550 hn         1 OAE       0.391500
@<TRIPOS>BOND
     1     1    24 1   
     2     2    15 1   
     3     2    26 1   
     4     2    27 1   
     5     2    28 1   
     6     3     9 1   
     7     3    23 1   
     8     3    29 1   
     9     4     6 1   
    10     5    15 1   
    11     5    22 1   
    12     6     8 1   
    13     6    21 1   
    14     7    12 1   
    15     7    43 1   
    16     7    44 1   
    17     9    11 2   
    18     9    12 1   
    19    10    21 1   
    20    10    22 1   
    21    10    30 1   
    22    12    14 1   
    23    12    31 1   
    24    13    24 1   
    25    14    16 ar  
    26    14    20 ar  
    27    15    21 1   
    28    15    25 1   
    29    16    17 ar  
    30    16    32 1   
    31    17    18 ar  
    32    17    33 1   
    33    18    19 ar  
    34    18    34 1   
    35    19    20 ar  
    36    19    35 1   
    37    20    36 1   
    38    21    37 1   
    39    22    23 1   
    40    22    38 1   
    41    23    24 1   
    42    23    39 1   
    43    25    40 1   
    44    25    41 1   
    45    25    42 1   
@<TRIPOS>SUBSTRUCTURE
     1 OAE         1 TEMP              0 ****  ****    0 ROOT
