@<TRIPOS>MOLECULE
OAF
   14    13     1     0     0
SMALL
No Charge or Current Charge


@<TRIPOS>ATOM
      1 O2          -2.4000    -0.9150    -0.7740 o          1 OAF      -0.731500
      2 C1          -1.8740    -0.1940     0.0680 c          1 OAF       0.680000
      3 O1          -2.5100     0.2940     0.9960 o          1 OAF      -0.731500
      4 C2          -0.4370     0.4410    -0.2770 c3         1 OAF       0.223000
      5 O4          -0.2650     0.5210    -1.7000 oh         1 OAF      -0.665500
      6 O3          -0.3820     1.8040     0.1710 oh         1 OAF      -0.665500
      7 C3           0.7080    -0.4090     0.3780 c3         1 OAF       0.006000
      8 F1           0.4980    -0.4740     1.7220 f          1 OAF      -0.150000
      9 F2           0.6090    -1.6950    -0.0580 f          1 OAF      -0.150000
     10 C4           2.1330     0.1790     0.0640 c          1 OAF       0.724000
     11 O5           2.7690    -0.2840    -0.8790 o          1 OAF      -0.723000
     12 O6           2.6590     0.9260     0.8830 o          1 OAF      -0.723000
     13 HO4         -1.1180     0.1940    -2.0670 ho         1 OAF       0.453500
     14 HO3         -1.2810     1.9790     0.5310 ho         1 OAF       0.453500
@<TRIPOS>BOND
     1     1     2 1   
     2     2     3 1   
     3     2     4 1   
     4     4     5 1   
     5     4     6 1   
     6     4     7 1   
     7     5    13 1   
     8     6    14 1   
     9     7     8 1   
    10     7     9 1   
    11     7    10 1   
    12    10    11 1   
    13    10    12 1   
@<TRIPOS>SUBSTRUCTURE
     1 OAF         1 TEMP              0 ****  ****    0 ROOT
