@<TRIPOS>MOLECULE
OAF
   14    13     1     0     0
SMALL
abcg2


@<TRIPOS>ATOM
      1 O2          -2.3160    -0.6770    -1.1590 o          1 OAF      -0.731500
      2 C1          -1.8590    -0.1670    -0.1170 c          1 OAF       0.680000
      3 O1          -2.3810    -0.0960     1.0040 o          1 OAF      -0.731500
      4 C2          -0.4650     0.5200    -0.2780 c3         1 OAF       0.223000
      5 O4          -0.1430     0.5930    -1.6190 oh         1 OAF      -0.665500
      6 O3          -0.5230     1.8100     0.2520 oh         1 OAF      -0.665500
      7 C3           0.6420    -0.2920     0.4210 c3         1 OAF       0.006000
      8 F1           0.5380    -0.1420     1.7780 f          1 OAF      -0.150000
      9 F2           0.3970    -1.6170     0.1840 f          1 OAF      -0.150000
     10 C4           2.0790     0.0790    -0.0210 c          1 OAF       0.724000
     11 O5           2.6770    -0.7480    -0.7230 o          1 OAF      -0.723000
     12 O6           2.4710     1.1830     0.3880 o          1 OAF      -0.723000
     13 HO4         -0.8880     0.1460    -2.0630 ho         1 OAF       0.453500
     14 HO3         -1.1190     1.7760     1.0100 ho         1 OAF       0.453500
@<TRIPOS>BOND
     1     1     2 1   
     2     2     3 1   
     3     2     4 1   
     4     4     5 1   
     5     4     6 1   
     6     4     7 1   
     7     5    13 1   
     8     6    14 1   
     9     7     8 1   
    10     7     9 1   
    11     7    10 1   
    12    10    11 1   
    13    10    12 1   
@<TRIPOS>SUBSTRUCTURE
     1 OAF         1 TEMP              0 ****  ****    0 ROOT
