@<TRIPOS>MOLECULE
OAG
   34    36     1     0     0
SMALL
No Charge or Current Charge


@<TRIPOS>ATOM
      1 C1          -0.4990     1.2240     0.5280 c3         1 OAG       0.275100
      2 N1          -1.2200    -0.0360     0.3590 nu         1 OAG      -0.950200
      3 Cl2         -1.9670    -2.8070    -0.6590 cl         1 OAG      -0.207000
      4 Cl5         -5.9900     1.9720     0.3820 cl         1 OAG      -0.203000
      5 C9           1.7820     0.7500    -0.4840 ca         1 OAG       0.005000
      6 C13         -2.5880    -0.2120     0.1150 ca         1 OAG       0.343000
      7 N5           5.0050     0.1160     1.1560 nb         1 OAG      -0.275000
      8 C10          0.9790     0.9210     0.6530 ca         1 OAG      -0.224300
      9 C11         -3.0700    -1.4560    -0.3610 ca         1 OAG       0.035000
     10 C12         -5.3410    -0.5800    -0.3780 ca         1 OAG      -0.153000
     11 C2           5.7380    -0.0390     0.0480 ca         1 OAG       0.445900
     12 N2           7.0510    -0.3020     0.2300 nv         1 OAG      -1.060900
     13 C3          -4.4430    -1.6370    -0.6060 ca         1 OAG      -0.048000
     14 N3           5.3340     0.0250    -1.2190 nb         1 OAG      -0.351000
     15 C4           4.0380     0.2820    -1.3870 ca         1 OAG       0.457900
     16 N4           3.6550     0.3320    -2.6860 nv         1 OAG      -1.075900
     17 C4A          3.1550     0.4710    -0.3070 ca         1 OAG      -0.288000
     18 C5          -4.8650     0.6520     0.0950 ca         1 OAG       0.170000
     19 C6          -3.4960     0.8370     0.3410 ca         1 OAG      -0.190000
     20 C7           1.5820     0.8100     1.9150 ca         1 OAG       0.154900
     21 N8           2.8920     0.5470     2.0860 nb         1 OAG      -0.141000
     22 C8A          3.6890     0.3770     1.0080 ca         1 OAG       0.159000
     23 H1          -0.6680     1.8800    -0.3380 h1         1 OAG       0.047200
     24 H1A         -0.8500     1.7520     1.4270 h1         1 OAG       0.047200
     25 HN1         -0.6440    -0.8600     0.1810 hn         1 OAG       0.490000
     26 H9           1.3390     0.8370    -1.4740 ha         1 OAG       0.105000
     27 H12         -6.4030    -0.7160    -0.5660 ha         1 OAG       0.135000
     28 HN2          7.3510    -0.6030     1.1530 hn         1 OAG       0.502000
     29 HN2A         7.5800    -0.6620    -0.5600 hn         1 OAG       0.502000
     30 H3          -4.8090    -2.5940    -0.9720 ha         1 OAG       0.130000
     31 HN4          4.3140    -0.0160    -3.3770 hn         1 OAG       0.501500
     32 HN4A         2.6720     0.2090    -2.9070 hn         1 OAG       0.501500
     33 H6          -3.1510     1.7960     0.7110 ha         1 OAG       0.131000
     34 H7           0.9980     0.9350     2.8250 h4         1 OAG       0.027100
@<TRIPOS>BOND
     1     1     2 1   
     2     1     8 1   
     3     1    23 1   
     4     1    24 1   
     5     2     6 1   
     6     2    25 1   
     7     3     9 1   
     8     4    18 1   
     9     5     8 ar  
    10     5    17 ar  
    11     5    26 1   
    12     6     9 ar  
    13     6    19 ar  
    14     7    11 ar  
    15     7    22 ar  
    16     8    20 ar  
    17     9    13 ar  
    18    10    13 ar  
    19    10    18 ar  
    20    10    27 1   
    21    11    12 1   
    22    11    14 ar  
    23    12    28 1   
    24    12    29 1   
    25    13    30 1   
    26    14    15 ar  
    27    15    16 1   
    28    15    17 ar  
    29    16    31 1   
    30    16    32 1   
    31    17    22 ar  
    32    18    19 ar  
    33    19    33 1   
    34    20    21 ar  
    35    20    34 1   
    36    21    22 ar  
@<TRIPOS>SUBSTRUCTURE
     1 OAG         1 TEMP              0 ****  ****    0 ROOT
