@<TRIPOS>MOLECULE
OAI
   24    25     1     0     0
SMALL
abcg2


@<TRIPOS>ATOM
      1 C1           1.2210    -0.0510    -2.1230 ca         1 OAI      -0.012200
      2 C2           1.2580    -0.0630    -0.7320 ca         1 OAI      -0.257000
      3 C3           0.0510    -0.0490    -0.0400 ca         1 OAI       0.060000
      4 C4          -1.1930    -0.0230    -0.7520 ca         1 OAI      -0.215600
      5 C5          -1.1800    -0.0120    -2.1360 ca         1 OAI      -0.039000
      6 C6           0.0160    -0.0260    -2.8510 ca         1 OAI      -0.175800
      7 C9           0.3660    -0.0220    -4.2390 cc         1 OAI      -0.222200
      8 C10          1.7280    -0.0430    -4.2960 cd         1 OAI      -0.248100
      9 N11          2.2420    -0.0610    -3.0260 na         1 OAI      -0.241700
     10 N12          0.0000    -0.0600     1.3550 ns         1 OAI      -0.140000
     11 C13          1.0100    -0.0740     2.2470 c          1 OAI       0.447100
     12 C14          0.5310    -0.0800     3.7320 c          1 OAI       0.659000
     13 O15         -0.6970    -0.0790     3.9200 o          1 OAI      -0.700000
     14 O16          1.4410    -0.0860     4.5710 o          1 OAI      -0.700000
     15 O17          2.2020    -0.0810     1.9730 o          1 OAI      -0.668100
     16 C18         -2.5570    -0.0050    -0.0730 c          1 OAI       0.713600
     17 O19         -2.5900    -0.0260     1.1830 o          1 OAI      -0.716500
     18 O20         -3.5570     0.0290    -0.8090 o          1 OAI      -0.716500
     19 H2           2.1980    -0.0830    -0.2050 ha         1 OAI       0.138000
     20 H5          -2.1260     0.0090    -2.6620 ha         1 OAI       0.120000
     21 H9          -0.3070    -0.0040    -5.0820 ha         1 OAI       0.173000
     22 H10          2.3860    -0.0470    -5.1500 h4         1 OAI       0.171000
     23 H11          3.2230    -0.0760    -2.8020 hn         1 OAI       0.324000
     24 H12         -0.9670    -0.0540     1.7140 hn         1 OAI       0.247000
@<TRIPOS>BOND
     1     1     2 ar  
     2     1     6 ar  
     3     1     9 1   
     4     2     3 ar  
     5     2    19 1   
     6     3     4 ar  
     7     3    10 1   
     8     4     5 ar  
     9     4    16 1   
    10     5     6 ar  
    11     5    20 1   
    12     6     7 1   
    13     7     8 2   
    14     7    21 1   
    15     8     9 1   
    16     8    22 1   
    17     9    23 1   
    18    10    11 1   
    19    10    24 1   
    20    11    12 1   
    21    11    15 2   
    22    12    13 1   
    23    12    14 1   
    24    16    17 1   
    25    16    18 1   
@<TRIPOS>SUBSTRUCTURE
     1 OAI         1 TEMP              0 ****  ****    0 ROOT
