@<TRIPOS>MOLECULE
OAI
   24    25     1     0     0
SMALL
No Charge or Current Charge


@<TRIPOS>ATOM
      1 C1           1.2210    -0.0980    -2.1850 ca         1 OAI      -0.012200
      2 C2           1.2650    -0.1230    -0.7880 ca         1 OAI      -0.257000
      3 C3           0.0490    -0.0700    -0.0600 ca         1 OAI       0.060000
      4 C4          -1.1930    -0.0140    -0.7690 ca         1 OAI      -0.215600
      5 C5          -1.1900     0.0150    -2.1870 ca         1 OAI      -0.039000
      6 C6           0.0390    -0.0280    -2.8530 ca         1 OAI      -0.175800
      7 C9           0.3390    -0.0230    -4.2520 cc         1 OAI      -0.222200
      8 C10          1.7200    -0.0920    -4.3680 cd         1 OAI      -0.248100
      9 N11          2.2860    -0.1410    -3.0690 na         1 OAI      -0.241700
     10 N12          0.0360    -0.0890     1.3630 ns         1 OAI      -0.140000
     11 C13          1.0200     0.1510     2.3180 c          1 OAI       0.447100
     12 C14          0.4840    -0.0810     3.8370 c          1 OAI       0.659000
     13 O15         -0.6800    -0.4430     3.9960 o          1 OAI      -0.700000
     14 O16          1.2550     0.1100     4.7750 o          1 OAI      -0.700000
     15 O17          2.1720     0.5170     2.0480 o          1 OAI      -0.668100
     16 C18         -2.5240     0.0280    -0.0530 c          1 OAI       0.713600
     17 O19         -2.6630    -0.6360     0.9630 o          1 OAI      -0.716500
     18 O20         -3.4180     0.7040    -0.5390 o          1 OAI      -0.716500
     19 H2           2.2270    -0.1940    -0.2900 ha         1 OAI       0.138000
     20 H5          -2.1190     0.0610    -2.7520 ha         1 OAI       0.120000
     21 H9          -0.3680     0.0250    -5.0790 ha         1 OAI       0.173000
     22 H10          2.3360    -0.1110    -5.2640 h4         1 OAI       0.171000
     23 H11          3.2710    -0.1950    -2.8300 hn         1 OAI       0.324000
     24 H12         -0.8670    -0.3400     1.7560 hn         1 OAI       0.247000
@<TRIPOS>BOND
     1     1     2 ar  
     2     1     6 ar  
     3     1     9 1   
     4     2     3 ar  
     5     2    19 1   
     6     3     4 ar  
     7     3    10 1   
     8     4     5 ar  
     9     4    16 1   
    10     5     6 ar  
    11     5    20 1   
    12     6     7 1   
    13     7     8 2   
    14     7    21 1   
    15     8     9 1   
    16     8    22 1   
    17     9    23 1   
    18    10    11 1   
    19    10    24 1   
    20    11    12 1   
    21    11    15 2   
    22    12    13 1   
    23    12    14 1   
    24    16    17 1   
    25    16    18 1   
@<TRIPOS>SUBSTRUCTURE
     1 OAI         1 TEMP              0 ****  ****    0 ROOT
