@<TRIPOS>MOLECULE
OAJ
   47    49     1     0     0
SMALL
No Charge or Current Charge


@<TRIPOS>ATOM
      1 O27         35.7350    -0.1070    21.4290 o          1 OAJ      -0.713000
      2 C25         35.6230     2.1920    20.9060 c6         1 OAJ      -0.092300
      3 C12         37.6080     2.6660    16.0880 ca         1 OAJ      -0.120000
      4 C13         37.4950     2.1980    17.4090 ca         1 OAJ      -0.087500
      5 C14         38.5580     2.3690    18.3180 ca         1 OAJ      -0.029300
      6 C21         36.3270     4.4520    21.8540 c6         1 OAJ       0.058000
      7 C22         34.8230     4.8110    21.9150 c6         1 OAJ       0.147600
      8 C02         40.8720     6.1650    12.4200 ca         1 OAJ      -0.005300
      9 C03         40.2320     4.9760    12.8240 ca         1 OAJ      -0.164000
     10 C04         39.4910     4.9290    14.0130 ca         1 OAJ       0.181100
     11 C05         39.3630     6.0820    14.8060 ca         1 OAJ      -0.191000
     12 C06         39.9960     7.2740    14.4170 ca         1 OAJ      -0.029000
     13 C07         40.7530     7.3230    13.2290 ca         1 OAJ      -0.082000
     14 C08         41.3860     8.5630    12.8630 cg         1 OAJ       0.345000
     15 C11         38.7800     3.3140    15.6680 ca         1 OAJ       0.061100
     16 C15         39.7380     3.0090    17.8880 ca         1 OAJ      -0.087500
     17 C16         39.8520     3.4760    16.5670 ca         1 OAJ      -0.120000
     18 C17         38.4370     1.8710    19.7530 c3         1 OAJ      -0.119100
     19 C24         34.1660     2.7060    21.0190 c6         1 OAJ       0.168600
     20 C26         35.8240     1.0150    21.9070 c          1 OAJ       0.714000
     21 N09         41.8960     9.5730    12.5750 n1         1 OAJ      -0.490000
     22 N20         36.6730     3.2870    20.9730 n          1 OAJ      -0.357800
     23 O10         38.8700     3.7520    14.3660 os         1 OAJ      -0.251200
     24 O19         38.9130     3.7920    21.1010 o          1 OAJ      -0.644100
     25 O23         34.0300     3.6300    22.1090 os         1 OAJ      -0.439000
     26 O28         36.5120     1.2240    22.8960 o          1 OAJ      -0.713000
     27 H2          35.6810     1.7450    19.9050 h1         1 OAJ       0.039700
     28 H3          36.7850     2.5290    15.3910 ha         1 OAJ       0.118500
     29 H4          36.5790     1.7020    17.7230 ha         1 OAJ       0.130000
     30 H5          36.6730     4.2290    22.8740 h1         1 OAJ       0.060700
     31 H6          36.8790     5.3410    21.5170 h1         1 OAJ       0.060700
     32 H7          34.6370     5.5110    22.7410 h1         1 OAJ       0.027700
     33 H8          34.5150     5.3000    20.9790 h1         1 OAJ       0.027700
     34 H9          41.2720     6.9050    10.4110 hc         1 OAJ       0.047367
     35 H10         42.7260     6.4280    11.3090 hc         1 OAJ       0.047367
     36 H11         41.6610     5.1960    10.6260 hc         1 OAJ       0.047367
     37 H12         40.3100     4.0790    12.2160 ha         1 OAJ       0.128000
     38 H13         38.7730     6.0580    15.7190 ha         1 OAJ       0.150000
     39 H14         39.8940     8.1620    15.0400 ha         1 OAJ       0.124000
     40 H15         40.5670     3.1440    18.5790 ha         1 OAJ       0.130000
     41 H16         40.7720     3.9590    16.2460 ha         1 OAJ       0.118500
     42 H17         37.7090     1.0580    19.7850 hc         1 OAJ       0.076700
     43 H18         39.4080     1.4810    20.0790 hc         1 OAJ       0.076700
     44 H19         33.8760     3.2120    20.0860 h1         1 OAJ       0.039700
     45 H20         33.4750     1.8640    21.1700 h1         1 OAJ       0.039700
     46 C18         38.0430     3.0310    20.6880 c          1 OAJ       0.623100
     47 C01         41.6760     6.1740    11.1210 c3         1 OAJ      -0.052800
@<TRIPOS>BOND
     1     1    20 1   
     2     2    19 1   
     3     2    20 1   
     4     2    22 1   
     5     2    27 1   
     6     3     4 ar  
     7     3    15 ar  
     8     3    28 1   
     9     4     5 ar  
    10     4    29 1   
    11     5    16 ar  
    12     5    18 1   
    13     6     7 1   
    14     6    22 1   
    15     6    30 1   
    16     6    31 1   
    17     7    25 1   
    18     7    32 1   
    19     7    33 1   
    20     8     9 ar  
    21     8    13 ar  
    22     8    47 1   
    23     9    10 ar  
    24     9    37 1   
    25    10    11 ar  
    26    10    23 1   
    27    11    12 ar  
    28    11    38 1   
    29    12    13 ar  
    30    12    39 1   
    31    13    14 1   
    32    14    21 3   
    33    15    17 ar  
    34    15    23 1   
    35    16    17 ar  
    36    16    40 1   
    37    17    41 1   
    38    18    42 1   
    39    18    43 1   
    40    18    46 1   
    41    19    25 1   
    42    19    44 1   
    43    19    45 1   
    44    20    26 1   
    45    22    46 1   
    46    24    46 2   
    47    34    47 1   
    48    35    47 1   
    49    36    47 1   
@<TRIPOS>SUBSTRUCTURE
     1 OAJ         1 TEMP              0 ****  ****    0 ROOT
