@<TRIPOS>MOLECULE
OAJ
   47    49     1     0     0
SMALL
abcg2


@<TRIPOS>ATOM
      1 O27         37.0700     0.3610    22.7520 o          1 OAJ      -0.713000
      2 C25         35.8390     1.9500    21.4870 c6         1 OAJ      -0.092300
      3 C12         37.6240     3.3820    15.2500 ca         1 OAJ      -0.120000
      4 C13         36.8660     3.0770    16.3730 ca         1 OAJ      -0.087500
      5 C14         37.4710     2.7240    17.5730 ca         1 OAJ      -0.029300
      6 C21         36.0320     4.3390    21.9710 c6         1 OAJ       0.058000
      7 C22         34.9010     4.1690    22.9660 c6         1 OAJ       0.147600
      8 C02         41.4460     6.2010    12.4010 ca         1 OAJ      -0.005300
      9 C03         40.9560     4.9670    12.7870 ca         1 OAJ      -0.164000
     10 C04         40.1860     4.8230    13.9410 ca         1 OAJ       0.181100
     11 C05         39.8940     5.9260    14.7380 ca         1 OAJ      -0.191000
     12 C06         40.3790     7.1650    14.3630 ca         1 OAJ      -0.029000
     13 C07         41.1470     7.3110    13.2090 ca         1 OAJ      -0.082000
     14 C08         41.6300     8.6010    12.8490 cg         1 OAJ       0.345000
     15 C11         39.0050     3.3310    15.3340 ca         1 OAJ       0.061100
     16 C15         38.8620     2.6870    17.6310 ca         1 OAJ      -0.087500
     17 C16         39.6350     2.9900    16.5210 ca         1 OAJ      -0.120000
     18 C17         36.6640     2.3760    18.7870 c3         1 OAJ      -0.119100
     19 C24         34.7010     1.9220    22.4950 c6         1 OAJ       0.168600
     20 C26         37.1790     1.3870    22.0580 c          1 OAJ       0.714000
     21 N09         42.0260     9.6420    12.5500 n1         1 OAJ      -0.490000
     22 N20         35.9860     3.2970    20.9580 n          1 OAJ      -0.357800
     23 O10         39.7630     3.5710    14.2090 os         1 OAJ      -0.251200
     24 O19         36.9600     4.6550    19.4410 o          1 OAJ      -0.644100
     25 O23         34.8780     2.8740    23.5170 os         1 OAJ      -0.439000
     26 O28         38.2220     1.9820    21.7330 o          1 OAJ      -0.713000
     27 H2          35.5280     1.2810    20.6800 h1         1 OAJ       0.039700
     28 H3          37.1430     3.6470    14.3170 ha         1 OAJ       0.118500
     29 H4          35.7850     3.1080    16.3040 ha         1 OAJ       0.130000
     30 H5          36.9960     4.3140    22.4900 h1         1 OAJ       0.060700
     31 H6          35.9400     5.3150    21.4990 h1         1 OAJ       0.060700
     32 H7          35.0310     4.8780    23.7860 h1         1 OAJ       0.027700
     33 H8          33.9420     4.3940    22.4770 h1         1 OAJ       0.027700
     34 H9          41.8210     7.0590    10.4680 hc         1 OAJ       0.047367
     35 H10         43.2720     6.7180    11.3960 hc         1 OAJ       0.047367
     36 H11         42.3790     5.3960    10.6460 hc         1 OAJ       0.047367
     37 H12         41.1710     4.0930    12.1840 ha         1 OAJ       0.128000
     38 H13         39.3000     5.8360    15.6370 ha         1 OAJ       0.150000
     39 H14         40.1570     8.0290    14.9750 ha         1 OAJ       0.124000
     40 H15         39.3500     2.4090    18.5580 ha         1 OAJ       0.130000
     41 H16         40.7150     2.9500    16.5740 ha         1 OAJ       0.118500
     42 H17         35.6520     2.0740    18.5010 hc         1 OAJ       0.076700
     43 H18         37.1140     1.5130    19.2780 hc         1 OAJ       0.076700
     44 H19         33.7480     2.0990    21.9740 h1         1 OAJ       0.039700
     45 H20         34.6560     0.9380    22.9560 h1         1 OAJ       0.039700
     46 C18         36.5700     3.5420    19.7620 c          1 OAJ       0.623100
     47 C01         42.2730     6.3480    11.1610 c3         1 OAJ      -0.052800
@<TRIPOS>BOND
     1     1    20 1   
     2     2    19 1   
     3     2    20 1   
     4     2    22 1   
     5     2    27 1   
     6     3     4 ar  
     7     3    15 ar  
     8     3    28 1   
     9     4     5 ar  
    10     4    29 1   
    11     5    16 ar  
    12     5    18 1   
    13     6     7 1   
    14     6    22 1   
    15     6    30 1   
    16     6    31 1   
    17     7    25 1   
    18     7    32 1   
    19     7    33 1   
    20     8     9 ar  
    21     8    13 ar  
    22     8    47 1   
    23     9    10 ar  
    24     9    37 1   
    25    10    11 ar  
    26    10    23 1   
    27    11    12 ar  
    28    11    38 1   
    29    12    13 ar  
    30    12    39 1   
    31    13    14 1   
    32    14    21 3   
    33    15    17 ar  
    34    15    23 1   
    35    16    17 ar  
    36    16    40 1   
    37    17    41 1   
    38    18    42 1   
    39    18    43 1   
    40    18    46 1   
    41    19    25 1   
    42    19    44 1   
    43    19    45 1   
    44    20    26 1   
    45    22    46 1   
    46    24    46 2   
    47    34    47 1   
    48    35    47 1   
    49    36    47 1   
@<TRIPOS>SUBSTRUCTURE
     1 OAJ         1 TEMP              0 ****  ****    0 ROOT
