@<TRIPOS>MOLECULE
OAK
   37    38     1     0     0
SMALL
bcc


@<TRIPOS>ATOM
      1 C9          -4.0740     0.9870     0.6410 ca         1 OAK      -0.088500
      2 C10         -5.3760     0.9110     0.1740 ca         1 OAK      -0.137000
      3 C11         -5.7340    -0.0760    -0.7360 ca         1 OAK      -0.105000
      4 C12         -4.7830    -0.9870    -1.1770 ca         1 OAK      -0.137000
      5 C13         -3.4760    -0.9040    -0.7200 ca         1 OAK      -0.088500
      6 C8          -3.1100     0.0880     0.1880 ca         1 OAK      -0.152600
      7 C7          -1.7250     0.2060     0.7340 c          1 OAK       0.690700
      8 O7          -1.5140     0.7040     1.8270 o          1 OAK      -0.574100
      9 N1          -0.7390    -0.2850    -0.0570 ns         1 OAK      -0.569900
     10 C1           0.6420    -0.2620     0.3010 c6         1 OAK       0.277500
     11 O5           1.2340     0.8820    -0.2670 os         1 OAK      -0.413600
     12 C5           2.5900     1.0500     0.0910 c6         1 OAK       0.155100
     13 C6           3.0620     2.3670    -0.4880 c3         1 OAK       0.149400
     14 O6           2.3380     3.4120     0.1150 oh         1 OAK      -0.583800
     15 C4           3.4100    -0.1320    -0.4290 c6         1 OAK       0.120100
     16 O4           4.7420     0.0410    -0.0130 oh         1 OAK      -0.592800
     17 C3           2.8270    -1.4340     0.1080 c6         1 OAK       0.116100
     18 O3           3.5540    -2.4920    -0.4680 oh         1 OAK      -0.604800
     19 C2           1.3410    -1.5250    -0.2080 c6         1 OAK       0.076100
     20 O2           0.8390    -2.6750     0.4230 oh         1 OAK      -0.593800
     21 H9          -3.8030     1.7540     1.3550 ha         1 OAK       0.140000
     22 H10         -6.1140     1.6210     0.5220 ha         1 OAK       0.136000
     23 H11         -6.7520    -0.1390    -1.0970 ha         1 OAK       0.134000
     24 H12         -5.0590    -1.7690    -1.8710 ha         1 OAK       0.136000
     25 H13         -2.7580    -1.6390    -1.0620 ha         1 OAK       0.140000
     26 HN1         -0.9570    -0.5020    -1.0190 hn         1 OAK       0.313500
     27 H1           0.7160    -0.2290     1.3950 h2         1 OAK       0.088700
     28 H5           2.6880     1.0890     1.1890 h1         1 OAK       0.067700
     29 H6           4.1370     2.4580    -0.3050 h1         1 OAK       0.034700
     30 H6A          2.9210     2.3470    -1.5780 h1         1 OAK       0.034700
     31 HO6          2.6770     4.2440    -0.2270 ho         1 OAK       0.404000
     32 H4           3.3360    -0.1450    -1.5280 h1         1 OAK       0.051700
     33 HO4          5.2570    -0.7040    -0.3390 ho         1 OAK       0.426000
     34 H3           2.9440    -1.4310     1.2040 h1         1 OAK       0.059700
     35 HO3          3.3300    -3.3060    -0.0080 ho         1 OAK       0.427000
     36 H2           1.2170    -1.5790    -1.3010 h1         1 OAK       0.049700
     37 HO2         -0.0360    -2.8680     0.0740 ho         1 OAK       0.416000
@<TRIPOS>BOND
     1     1     2 ar  
     2     1     6 ar  
     3     1    21 1   
     4     2     3 ar  
     5     2    22 1   
     6     3     4 ar  
     7     3    23 1   
     8     4     5 ar  
     9     4    24 1   
    10     5     6 ar  
    11     5    25 1   
    12     6     7 1   
    13     7     8 2   
    14     7     9 1   
    15     9    10 1   
    16     9    26 1   
    17    10    11 1   
    18    10    19 1   
    19    10    27 1   
    20    11    12 1   
    21    12    13 1   
    22    12    15 1   
    23    12    28 1   
    24    13    14 1   
    25    13    29 1   
    26    13    30 1   
    27    14    31 1   
    28    15    16 1   
    29    15    17 1   
    30    15    32 1   
    31    16    33 1   
    32    17    18 1   
    33    17    19 1   
    34    17    34 1   
    35    18    35 1   
    36    19    20 1   
    37    19    36 1   
    38    20    37 1   
@<TRIPOS>SUBSTRUCTURE
     1 OAK         1 TEMP              0 ****  ****    0 ROOT
