@<TRIPOS>MOLECULE
OAK
   37    38     1     0     0
SMALL
No Charge or Current Charge


@<TRIPOS>ATOM
      1 C9          -4.1730     0.8480     0.8430 ca         1 OAK      -0.070500
      2 C10         -5.4770     0.8130     0.3190 ca         1 OAK      -0.119000
      3 C11         -5.7500     0.0790    -0.8450 ca         1 OAK      -0.087000
      4 C12         -4.7160    -0.6220    -1.4840 ca         1 OAK      -0.119000
      5 C13         -3.4100    -0.5900    -0.9650 ca         1 OAK      -0.070500
      6 C8          -3.1190     0.1480     0.2100 ca         1 OAK      -0.152600
      7 C7          -1.7250     0.2100     0.8050 c          1 OAK       0.623700
      8 O7          -1.4820     0.8300     1.8310 o          1 OAK      -0.574100
      9 N1          -0.7390    -0.4850     0.1450 ns         1 OAK      -0.502900
     10 C1           0.6810    -0.4180     0.4690 c6         1 OAK       0.300700
     11 O5           1.1790     0.7700    -0.1760 os         1 OAK      -0.460000
     12 C5           2.5840     1.0480     0.0780 c6         1 OAK       0.178300
     13 C6           2.9470     2.4180    -0.5880 c3         1 OAK       0.172600
     14 O6           2.1200     3.5130    -0.1380 oh         1 OAK      -0.706000
     15 C4           3.4590    -0.1250    -0.4650 c6         1 OAK       0.143300
     16 O4           4.8610     0.0640    -0.1930 oh         1 OAK      -0.715000
     17 C3           2.9780    -1.4600     0.1740 c6         1 OAK       0.139300
     18 O3           3.7190    -2.5750    -0.3480 oh         1 OAK      -0.667000
     19 C2           1.4570    -1.6650    -0.0750 c6         1 OAK       0.099300
     20 O2           1.0240    -2.9000     0.5440 oh         1 OAK      -0.716000
     21 H9          -3.9860     1.4250     1.7460 ha         1 OAK       0.122000
     22 H10         -6.2770     1.3570     0.8180 ha         1 OAK       0.118000
     23 H11         -6.7600     0.0520    -1.2490 ha         1 OAK       0.116000
     24 H12         -4.9270    -1.1920    -2.3870 ha         1 OAK       0.118000
     25 H13         -2.6380    -1.1460    -1.4910 ha         1 OAK       0.122000
     26 HN1         -1.0030    -0.9320    -0.7200 hn         1 OAK       0.313500
     27 H1           0.8090    -0.3400     1.5610 h2         1 OAK       0.088700
     28 H5           2.7360     1.1460     1.1630 h1         1 OAK       0.067700
     29 H6           4.0010     2.6360    -0.3720 h1         1 OAK       0.034700
     30 H6A          2.8560     2.3020    -1.6760 h1         1 OAK       0.034700
     31 HO6          2.3830     4.3050    -0.6630 ho         1 OAK       0.503000
     32 H4           3.3010    -0.1900    -1.5530 h1         1 OAK       0.051700
     33 HO4          5.2610    -0.8340    -0.2950 ho         1 OAK       0.525000
     34 H3           3.1320    -1.3920     1.2620 h1         1 OAK       0.059700
     35 HO3          3.1520    -3.3590    -0.1540 ho         1 OAK       0.466000
     36 H2           1.2900    -1.7180    -1.1620 h1         1 OAK       0.049700
     37 HO2          0.0410    -2.9420     0.4730 ho         1 OAK       0.515000
@<TRIPOS>BOND
     1     1     2 ar  
     2     1     6 ar  
     3     1    21 1   
     4     2     3 ar  
     5     2    22 1   
     6     3     4 ar  
     7     3    23 1   
     8     4     5 ar  
     9     4    24 1   
    10     5     6 ar  
    11     5    25 1   
    12     6     7 1   
    13     7     8 2   
    14     7     9 1   
    15     9    10 1   
    16     9    26 1   
    17    10    11 1   
    18    10    19 1   
    19    10    27 1   
    20    11    12 1   
    21    12    13 1   
    22    12    15 1   
    23    12    28 1   
    24    13    14 1   
    25    13    29 1   
    26    13    30 1   
    27    14    31 1   
    28    15    16 1   
    29    15    17 1   
    30    15    32 1   
    31    16    33 1   
    32    17    18 1   
    33    17    19 1   
    34    17    34 1   
    35    18    35 1   
    36    19    20 1   
    37    19    36 1   
    38    20    37 1   
@<TRIPOS>SUBSTRUCTURE
     1 OAK         1 TEMP              0 ****  ****    0 ROOT
