@<TRIPOS>MOLECULE
OAL
   31    33     1     0     0
SMALL
No Charge or Current Charge


@<TRIPOS>ATOM
      1 C1           0.4620     0.3450    -4.9780 ca         1 OAL      -0.061000
      2 C2           1.3520     0.3200    -3.8950 ca         1 OAL      -0.127000
      3 C3           0.8890     0.0920    -2.5780 ca         1 OAL      -0.071600
      4 C4          -0.4990    -0.1130    -2.3540 ca         1 OAL      -0.241600
      5 C5          -1.3840    -0.0840    -3.4600 ca         1 OAL       0.211100
      6 C6          -0.9050     0.1420    -4.7560 ca         1 OAL      -0.167000
      7 C7          -1.0150    -0.3570    -0.9570 c          1 OAL       0.631300
      8 C8          -0.0410    -0.3820     0.1990 ca         1 OAL      -0.277600
      9 C9           1.3440    -0.1750    -0.0390 ca         1 OAL      -0.132600
     10 C10          1.8800     0.0720    -1.4340 c          1 OAL       0.593300
     11 C11         -0.4910    -0.6110     1.5270 ca         1 OAL       0.247100
     12 C12          0.4240    -0.6340     2.6100 ca         1 OAL      -0.003300
     13 C13          1.7890    -0.4250     2.3530 ca         1 OAL      -0.092000
     14 C14          2.2430    -0.2000     1.0480 ca         1 OAL      -0.086000
     15 C15         -0.0190    -0.8720     4.0610 c3         1 OAL      -0.193100
     16 C16         -0.2850     0.4770     4.7430 c          1 OAL       0.734000
     17 O1          -2.7210    -0.2760    -3.2930 oh         1 OAL      -0.552100
     18 O2          -2.2160    -0.5340    -0.7650 o          1 OAL      -0.639100
     19 O3          -1.8200    -0.8150     1.7640 oh         1 OAL      -0.502100
     20 O5           0.6650     1.0630     5.2410 o          1 OAL      -0.719500
     21 O4          -1.4040     0.9600     4.6560 o          1 OAL      -0.719500
     22 O6           3.0790     0.2510    -1.6300 o          1 OAL      -0.539100
     23 HC1          0.8330     0.5210    -5.9850 ha         1 OAL       0.109000
     24 HC2          2.4120     0.4790    -4.0860 ha         1 OAL       0.134000
     25 HC6         -1.5980     0.1610    -5.5940 ha         1 OAL       0.124000
     26 HC13         2.5060    -0.4350     3.1710 ha         1 OAL       0.116000
     27 HC14         3.3080    -0.0420     0.8870 ha         1 OAL       0.121000
     28 H151         0.8100    -1.3830     4.5670 hc         1 OAL       0.041700
     29 H152        -0.9320    -1.4770     4.0510 hc         1 OAL       0.041700
     30 HO1         -2.8510    -0.4160    -2.3180 ho         1 OAL       0.522000
     31 HO3         -2.2630    -0.7520     0.8790 ho         1 OAL       0.499000
@<TRIPOS>BOND
     1     1     2 ar  
     2     1     6 ar  
     3     1    23 1   
     4     2     3 ar  
     5     2    24 1   
     6     3     4 ar  
     7     3    10 1   
     8     4     5 ar  
     9     4     7 1   
    10     5     6 ar  
    11     5    17 1   
    12     6    25 1   
    13     7     8 1   
    14     7    18 2   
    15     8     9 ar  
    16     8    11 ar  
    17     9    10 1   
    18     9    14 ar  
    19    10    22 2   
    20    11    12 ar  
    21    11    19 1   
    22    12    13 ar  
    23    12    15 1   
    24    13    14 ar  
    25    13    26 1   
    26    14    27 1   
    27    15    16 1   
    28    15    28 1   
    29    15    29 1   
    30    16    20 1   
    31    16    21 1   
    32    17    30 1   
    33    19    31 1   
@<TRIPOS>SUBSTRUCTURE
     1 OAL         1 TEMP              0 ****  ****    0 ROOT
