@<TRIPOS>MOLECULE
OAL
   31    33     1     0     0
SMALL
bcc


@<TRIPOS>ATOM
      1 C1           0.4670     0.3610    -4.8750 ca         1 OAL      -0.079000
      2 C2           1.3860     0.2690    -3.8310 ca         1 OAL      -0.145000
      3 C3           0.9340     0.0570    -2.5440 ca         1 OAL      -0.071600
      4 C4          -0.4430    -0.0680    -2.2790 ca         1 OAL      -0.241600
      5 C5          -1.3610     0.0230    -3.3430 ca         1 OAL       0.211100
      6 C6          -0.8850     0.2390    -4.6420 ca         1 OAL      -0.185000
      7 C7          -0.9220    -0.2850    -0.9180 c          1 OAL       0.631300
      8 C8           0.0310    -0.3710     0.1770 ca         1 OAL      -0.277600
      9 C9           1.4150    -0.2560    -0.0710 ca         1 OAL      -0.132600
     10 C10          1.9240    -0.0410    -1.4410 c          1 OAL       0.593300
     11 C11         -0.4240    -0.5650     1.4930 ca         1 OAL       0.247100
     12 C12          0.4940    -0.6520     2.5600 ca         1 OAL      -0.003300
     13 C13          1.8380    -0.5420     2.2720 ca         1 OAL      -0.110000
     14 C14          2.3090    -0.3440     0.9740 ca         1 OAL      -0.104000
     15 C15         -0.0070    -0.8260     3.9520 c3         1 OAL      -0.193100
     16 C16         -0.6530     0.4610     4.5330 c          1 OAL       0.944600
     17 O1          -2.6730    -0.0880    -3.1810 oh         1 OAL      -0.513100
     18 O2          -2.1430    -0.3950    -0.7010 o          1 OAL      -0.639100
     19 O3          -1.7090    -0.6850     1.7970 oh         1 OAL      -0.463100
     20 O5          -0.4900     1.5150     3.8940 o          1 OAL      -0.824800
     21 O4          -1.2580     0.3140     5.6110 o          1 OAL      -0.824800
     22 O6           3.1150     0.0540    -1.6660 o          1 OAL      -0.539100
     23 HC1          0.8180     0.5290    -5.8840 ha         1 OAL       0.127000
     24 HC2          2.4440     0.3660    -4.0290 ha         1 OAL       0.152000
     25 HC6         -1.5960     0.3090    -5.4550 ha         1 OAL       0.142000
     26 HC13         2.5520    -0.6080     3.0840 ha         1 OAL       0.134000
     27 HC14         3.3720    -0.2610     0.7950 ha         1 OAL       0.139000
     28 H151         0.8270    -1.1070     4.6020 hc         1 OAL       0.041700
     29 H152        -0.7260    -1.6470     4.0130 hc         1 OAL       0.041700
     30 HO1         -2.8520    -0.2390    -2.2270 ho         1 OAL       0.483000
     31 HO3         -2.2310    -0.6150     0.9690 ho         1 OAL       0.460000
@<TRIPOS>BOND
     1     1     2 ar  
     2     1     6 ar  
     3     1    23 1   
     4     2     3 ar  
     5     2    24 1   
     6     3     4 ar  
     7     3    10 1   
     8     4     5 ar  
     9     4     7 1   
    10     5     6 ar  
    11     5    17 1   
    12     6    25 1   
    13     7     8 1   
    14     7    18 2   
    15     8     9 ar  
    16     8    11 ar  
    17     9    10 1   
    18     9    14 ar  
    19    10    22 2   
    20    11    12 ar  
    21    11    19 1   
    22    12    13 ar  
    23    12    15 1   
    24    13    14 ar  
    25    13    26 1   
    26    14    27 1   
    27    15    16 1   
    28    15    28 1   
    29    15    29 1   
    30    16    20 1   
    31    16    21 1   
    32    17    30 1   
    33    19    31 1   
@<TRIPOS>SUBSTRUCTURE
     1 OAL         1 TEMP              0 ****  ****    0 ROOT
