@<TRIPOS>MOLECULE
OAM
   39    41     1     0     0
SMALL
bcc


@<TRIPOS>ATOM
      1 CAA          0.0180     4.0910    -0.1030 c3         1 OAM      -0.123400
      2 CAB          0.8810     2.9060    -0.3200 cc         1 OAM       0.379800
      3 NAC          1.9380     2.8560    -1.0750 nd         1 OAM      -0.347000
      4 NAD          2.4430     1.6010    -1.0010 nd         1 OAM      -0.422000
      5 CAE          1.6790     0.8970    -0.2000 cc         1 OAM       0.527000
      6 CAF          1.9020    -0.4960     0.0910 cc         1 OAM      -0.419800
      7 CAG          1.2530    -1.4250     0.9360 cc         1 OAM       0.352200
      8 NAH          1.7850    -2.6190     0.8540 nd         1 OAM      -0.523800
      9 NAI          2.7960    -2.5000    -0.0280 na         1 OAM       0.071400
     10 CAJ          3.6040    -3.6370    -0.3890 c3         1 OAM       0.038600
     11 CAK          2.9040    -1.2560    -0.5210 cd         1 OAM       0.203300
     12 NAL          3.8810    -0.8870    -1.3940 nv         1 OAM      -0.811200
     13 NAM          0.6770     1.6920     0.2660 na         1 OAM      -0.340700
     14 CAN         -0.4400     1.3410     1.1160 c3         1 OAM       0.050300
     15 CAO         -1.5350     0.6080     0.3520 c3         1 OAM      -0.126400
     16 CAP         -2.6990     0.2730     1.2740 c3         1 OAM       0.046300
     17 NAQ         -3.7660    -0.4120     0.5780 na         1 OAM      -0.193900
     18 CAR         -3.7840    -1.7280     0.2080 cc         1 OAM      -0.264600
     19 CAS         -4.9530    -1.8990    -0.4770 cd         1 OAM       0.298200
     20 NAT         -5.6420    -0.7210    -0.5370 nd         1 OAM      -0.668000
     21 CAU         -4.8990     0.1460     0.1010 cc         1 OAM       0.388400
     22 HAA         -1.0160     3.8990    -0.3960 hc         1 OAM       0.057033
     23 HAAA         0.0130     4.4040     0.9420 hc         1 OAM       0.057033
     24 HAAB         0.3900     4.9200    -0.7010 hc         1 OAM       0.057033
     25 HAG          0.4220    -1.2700     1.6070 h4         1 OAM       0.029100
     26 HAJ          3.3350    -4.0260    -1.3710 h1         1 OAM       0.058367
     27 HAJA         4.6590    -3.3640    -0.3940 h1         1 OAM       0.058367
     28 HAJB         3.4490    -4.4150     0.3520 h1         1 OAM       0.058367
     29 HNAL         3.7500     0.0460    -1.7630 hn         1 OAM       0.428300
     30 HNAA         4.1420    -1.5620    -2.0960 hn         1 OAM       0.428300
     31 HAN         -0.0760     0.7530     1.9580 h1         1 OAM       0.061700
     32 HANA        -0.8340     2.2620     1.5440 h1         1 OAM       0.061700
     33 HAO         -1.8890     1.2350    -0.4700 hc         1 OAM       0.072200
     34 HAOA        -1.1370    -0.3060    -0.0970 hc         1 OAM       0.072200
     35 HAP         -2.3690    -0.3520     2.1060 h1         1 OAM       0.059700
     36 HAPA        -3.1140     1.1840     1.7070 h1         1 OAM       0.059700
     37 HAR         -2.9910    -2.4100     0.4650 h4         1 OAM       0.176000
     38 HAS         -5.3310    -2.8060    -0.9210 h4         1 OAM       0.039100
     39 HAU         -5.1280     1.1900     0.2570 h5         1 OAM       0.051100
@<TRIPOS>BOND
     1     1     2 1   
     2     1    22 1   
     3     1    23 1   
     4     1    24 1   
     5     2     3 2   
     6     2    13 1   
     7     3     4 1   
     8     4     5 2   
     9     5     6 1   
    10     5    13 1   
    11     6     7 1   
    12     6    11 2   
    13     7     8 2   
    14     7    25 1   
    15     8     9 1   
    16     9    10 1   
    17     9    11 1   
    18    10    26 1   
    19    10    27 1   
    20    10    28 1   
    21    11    12 1   
    22    12    29 1   
    23    12    30 1   
    24    13    14 1   
    25    14    15 1   
    26    14    31 1   
    27    14    32 1   
    28    15    16 1   
    29    15    33 1   
    30    15    34 1   
    31    16    17 1   
    32    16    35 1   
    33    16    36 1   
    34    17    18 1   
    35    17    21 1   
    36    18    19 2   
    37    18    37 1   
    38    19    20 1   
    39    19    38 1   
    40    20    21 2   
    41    21    39 1   
@<TRIPOS>SUBSTRUCTURE
     1 OAM         1 TEMP              0 ****  ****    0 ROOT
