@<TRIPOS>MOLECULE
OAM
   39    41     1     0     0
SMALL
No Charge or Current Charge


@<TRIPOS>ATOM
      1 CAA         -0.0120     4.1120    -0.1550 c3         1 OAM      -0.123400
      2 CAB          0.8800     2.9230    -0.3780 cc         1 OAM       0.379800
      3 NAC          1.9720     2.9350    -1.1170 nd         1 OAM      -0.347000
      4 NAD          2.5090     1.6780    -1.0850 nd         1 OAM      -0.422000
      5 CAE          1.7410     0.9010    -0.3320 cc         1 OAM       0.527000
      6 CAF          1.9580    -0.5040    -0.0760 cc         1 OAM      -0.354500
      7 CAG          1.1790    -1.4200     0.6590 cc         1 OAM       0.286900
      8 NAH          1.6590    -2.6480     0.6900 nd         1 OAM      -0.523800
      9 NAI          2.8170    -2.5320    -0.0680 na         1 OAM       0.092800
     10 CAJ          3.6890    -3.6950    -0.2940 c3         1 OAM       0.067900
     11 CAK          3.0080    -1.2230    -0.5450 cd         1 OAM       0.291000
     12 NAL          4.0760    -0.8480    -1.3130 nv         1 OAM      -1.060000
     13 NAM          0.6890     1.6680     0.1590 na         1 OAM      -0.370000
     14 CAN         -0.4020     1.3000     1.0800 c3         1 OAM       0.079600
     15 CAO         -1.6030     0.6590     0.3540 c3         1 OAM      -0.126400
     16 CAP         -2.7100     0.2000     1.3230 c3         1 OAM       0.075600
     17 NAQ         -3.8440    -0.4270     0.6290 na         1 OAM      -0.172500
     18 CAR         -3.9160    -1.7330     0.1950 cc         1 OAM      -0.232000
     19 CAS         -5.1490    -1.8570    -0.3920 cd         1 OAM       0.232900
     20 NAT         -5.8390    -0.6630    -0.3310 nd         1 OAM      -0.668000
     21 CAU         -5.0320     0.1870     0.2890 cc         1 OAM       0.388400
     22 HAA         -1.0530     3.8700    -0.3950 hc         1 OAM       0.057033
     23 HAAA         0.0340     4.4390     0.8900 hc         1 OAM       0.057033
     24 HAAB         0.2910     4.9560    -0.7850 hc         1 OAM       0.057033
     25 HAG          0.2510    -1.2570     1.1820 h4         1 OAM       0.029100
     26 HAJ          3.7130    -3.9310    -1.3650 h1         1 OAM       0.058367
     27 HAJA         4.7030    -3.4650     0.0520 h1         1 OAM       0.058367
     28 HAJB         3.3090    -4.5630     0.2580 h1         1 OAM       0.058367
     29 HNAL         4.0820     0.0910    -1.7120 hn         1 OAM       0.483500
     30 HNAA         4.6780    -1.5450    -1.7480 hn         1 OAM       0.483500
     31 HAN         -0.0140     0.6440     1.8680 h1         1 OAM       0.061700
     32 HANA        -0.7510     2.2040     1.5950 h1         1 OAM       0.061700
     33 HAO         -2.0230     1.3840    -0.3550 hc         1 OAM       0.072200
     34 HAOA        -1.2650    -0.1990    -0.2390 hc         1 OAM       0.072200
     35 HAP         -2.2950    -0.5250     2.0360 h1         1 OAM       0.059700
     36 HAPA        -3.0770     1.0610     1.8970 h1         1 OAM       0.059700
     37 HAR         -3.1190    -2.4530     0.3270 h4         1 OAM       0.158000
     38 HAS         -5.5770    -2.7390    -0.8540 h4         1 OAM       0.039100
     39 HAU         -5.2380     1.2270     0.5150 h5         1 OAM       0.051100
@<TRIPOS>BOND
     1     1     2 1   
     2     1    22 1   
     3     1    23 1   
     4     1    24 1   
     5     2     3 2   
     6     2    13 1   
     7     3     4 1   
     8     4     5 2   
     9     5     6 1   
    10     5    13 1   
    11     6     7 1   
    12     6    11 2   
    13     7     8 2   
    14     7    25 1   
    15     8     9 1   
    16     9    10 1   
    17     9    11 1   
    18    10    26 1   
    19    10    27 1   
    20    10    28 1   
    21    11    12 1   
    22    12    29 1   
    23    12    30 1   
    24    13    14 1   
    25    14    15 1   
    26    14    31 1   
    27    14    32 1   
    28    15    16 1   
    29    15    33 1   
    30    15    34 1   
    31    16    17 1   
    32    16    35 1   
    33    16    36 1   
    34    17    18 1   
    35    17    21 1   
    36    18    19 2   
    37    18    37 1   
    38    19    20 1   
    39    19    38 1   
    40    20    21 2   
    41    21    39 1   
@<TRIPOS>SUBSTRUCTURE
     1 OAM         1 TEMP              0 ****  ****    0 ROOT
