@<TRIPOS>MOLECULE
OAN
   44    45     1     0     0
SMALL
abcg2


@<TRIPOS>ATOM
      1 CAH          1.5370     4.7200    -0.2780 c3         1 OAN      -0.176100
      2 CAG          1.9520     3.4730     0.4600 c          1 OAN       0.621100
      3 OAN          2.0160     3.4300     1.6790 o          1 OAN      -0.597100
      4 NAI          2.2370     2.4160    -0.3280 ns         1 OAN      -0.484900
      5 CAB          2.5400     1.1140     0.1830 c6         1 OAN       0.056400
      6 CAC          3.7040     0.4720    -0.5640 c6         1 OAN       0.163300
      7 OAJ          4.8270     1.2800    -0.3620 oh         1 OAN      -0.637000
      8 CAD          3.9170    -0.9400    -0.0330 c6         1 OAN       0.098300
      9 OAK          4.9790    -1.5110    -0.7560 oh         1 OAN      -0.658000
     10 CAE          2.6410    -1.7580    -0.2280 c6         1 OAN       0.154300
     11 CAF          2.7300    -3.1250     0.4070 c3         1 OAN       0.169600
     12 OAM          1.5610    -3.8450     0.1100 oh         1 OAN      -0.639000
     13 OAL          1.5100    -1.1010     0.3650 os         1 OAN      -0.429600
     14 CAA          1.3330     0.2000     0.1730 c2         1 OAN       0.544600
     15 NAY          0.1840     0.7350     0.0920 n2         1 OAN      -0.308700
     16 OAQ         -0.8100    -0.2190     0.1680 os         1 OAN      -0.300100
     17 CAP         -2.0420     0.2840    -0.0770 c          1 OAN       0.655100
     18 OAR         -2.2700     1.4190    -0.4040 o          1 OAN      -0.484000
     19 NAO         -2.9350    -0.7180     0.1060 ns         1 OAN      -0.147000
     20 CAS         -4.3240    -0.6750    -0.0450 ca         1 OAN      -0.002000
     21 CAT         -5.0280     0.4080    -0.5720 ca         1 OAN      -0.152500
     22 CAU         -6.4110     0.3360    -0.6850 ca         1 OAN      -0.082000
     23 CAV         -7.1110    -0.7930    -0.2890 ca         1 OAN      -0.139000
     24 CAW         -6.4050    -1.8710     0.2300 ca         1 OAN      -0.082000
     25 CAX         -5.0280    -1.8140     0.3520 ca         1 OAN      -0.152500
     26 HAH1         2.0380     5.5850     0.1510 hc         1 OAN       0.063700
     27 HAH2         1.7490     4.6840    -1.3450 hc         1 OAN       0.063700
     28 HAH3         0.4640     4.8660    -0.1500 hc         1 OAN       0.063700
     29 HAI          2.0870     2.5020    -1.3210 hn         1 OAN       0.318500
     30 HAB          2.8380     1.2250     1.2310 h1         1 OAN       0.120700
     31 HAC          3.4490     0.4010    -1.6350 h1         1 OAN       0.049700
     32 HAJ          5.5640     0.8890    -0.8440 ho         1 OAN       0.461000
     33 HAD          4.1500    -0.8800     1.0400 h1         1 OAN       0.062700
     34 HAK          5.4840    -2.0920    -0.1790 ho         1 OAN       0.457000
     35 HAE          2.4500    -1.8640    -1.3040 h1         1 OAN       0.078700
     36 HAF1         3.6230    -3.6210     0.0110 h1         1 OAN       0.029700
     37 HAF2         2.8800    -3.0050     1.4890 h1         1 OAN       0.029700
     38 HAM          1.6640    -4.7350     0.4590 ho         1 OAN       0.448000
     39 HAO         -2.5610    -1.5990     0.4280 hn         1 OAN       0.169000
     40 HAT         -4.5190     1.3000    -0.8970 ha         1 OAN       0.128000
     41 HAU         -6.9420     1.1850    -1.0950 ha         1 OAN       0.113000
     42 HAV         -8.1880    -0.8350    -0.3840 ha         1 OAN       0.115000
     43 HAW         -6.9270    -2.7650     0.5470 ha         1 OAN       0.113000
     44 HAX         -4.4920    -2.6620     0.7620 ha         1 OAN       0.128000
@<TRIPOS>BOND
     1     1     2 1   
     2     1    26 1   
     3     1    27 1   
     4     1    28 1   
     5     2     3 2   
     6     2     4 1   
     7     4     5 1   
     8     4    29 1   
     9     5     6 1   
    10     5    14 1   
    11     5    30 1   
    12     6     7 1   
    13     6     8 1   
    14     6    31 1   
    15     7    32 1   
    16     8     9 1   
    17     8    10 1   
    18     8    33 1   
    19     9    34 1   
    20    10    11 1   
    21    10    13 1   
    22    10    35 1   
    23    11    12 1   
    24    11    36 1   
    25    11    37 1   
    26    12    38 1   
    27    13    14 1   
    28    14    15 2   
    29    15    16 1   
    30    16    17 1   
    31    17    18 2   
    32    17    19 1   
    33    19    20 1   
    34    19    39 1   
    35    20    21 ar  
    36    20    25 ar  
    37    21    22 ar  
    38    21    40 1   
    39    22    23 ar  
    40    22    41 1   
    41    23    24 ar  
    42    23    42 1   
    43    24    25 ar  
    44    24    43 1   
    45    25    44 1   
@<TRIPOS>SUBSTRUCTURE
     1 OAN         1 TEMP              0 ****  ****    0 ROOT
