@<TRIPOS>MOLECULE
OAN
   44    45     1     0     0
SMALL
No Charge or Current Charge


@<TRIPOS>ATOM
      1 CAH          1.7550     4.9350    -0.3560 c3         1 OAN      -0.176100
      2 CAG          1.8530     3.6120     0.3900 c          1 OAN       0.621100
      3 OAN          1.4040     3.4540     1.5160 o          1 OAN      -0.597100
      4 NAI          2.5020     2.6080    -0.2900 ns         1 OAN      -0.484900
      5 CAB          2.6970     1.2130     0.2010 c6         1 OAN       0.056400
      6 CAC          3.7710     0.4710    -0.6340 c6         1 OAN       0.163300
      7 OAJ          5.0220     1.1740    -0.6070 oh         1 OAN      -0.637000
      8 CAD          3.9660    -0.9700    -0.0910 c6         1 OAN       0.098300
      9 OAK          4.9940    -1.6410    -0.8520 oh         1 OAN      -0.658000
     10 CAE          2.6020    -1.7170    -0.1740 c6         1 OAN       0.154300
     11 CAF          2.6500    -3.1550     0.4380 c3         1 OAN       0.169600
     12 OAM          1.3800    -3.8310     0.3940 oh         1 OAN      -0.639000
     13 OAL          1.5530    -0.9740     0.5010 os         1 OAN      -0.429600
     14 CAA          1.4020     0.3730     0.2420 c2         1 OAN       0.544600
     15 NAY          0.2130     0.8600     0.0650 n2         1 OAN      -0.308700
     16 OAQ         -0.8480    -0.1020     0.1460 os         1 OAN      -0.300100
     17 CAP         -2.1250     0.3850    -0.0450 c          1 OAN       0.655100
     18 OAR         -2.4050     1.5550    -0.2820 o          1 OAN      -0.484000
     19 NAO         -3.0210    -0.6640     0.0680 ns         1 OAN      -0.147000
     20 CAS         -4.4370    -0.7280    -0.0370 ca         1 OAN      -0.002000
     21 CAT         -5.2510     0.3980    -0.2990 ca         1 OAN      -0.152500
     22 CAU         -6.6470     0.2600    -0.3900 ca         1 OAN      -0.082000
     23 CAV         -7.2440    -1.0000    -0.2210 ca         1 OAN      -0.139000
     24 CAW         -6.4440    -2.1230     0.0390 ca         1 OAN      -0.082000
     25 CAX         -5.0480    -1.9850     0.1300 ca         1 OAN      -0.152500
     26 HAH1         1.2420     5.7100     0.2250 hc         1 OAN       0.063700
     27 HAH2         2.7610     5.2520    -0.6540 hc         1 OAN       0.063700
     28 HAH3         1.2680     4.7640    -1.3220 hc         1 OAN       0.063700
     29 HAI          2.8780     2.8530    -1.1990 hn         1 OAN       0.318500
     30 HAB          3.0610     1.2770     1.2360 h1         1 OAN       0.120700
     31 HAC          3.4130     0.4010    -1.6730 h1         1 OAN       0.049700
     32 HAJ          5.6880     0.5130    -0.9080 ho         1 OAN       0.461000
     33 HAD          4.2640    -0.9050     0.9670 h1         1 OAN       0.062700
     34 HAK          5.3730    -2.3520    -0.2860 ho         1 OAN       0.457000
     35 HAE          2.3220    -1.8130    -1.2330 h1         1 OAN       0.078700
     36 HAF1         3.3990    -3.7410    -0.1100 h1         1 OAN       0.029700
     37 HAF2         2.9950    -3.0740     1.4780 h1         1 OAN       0.029700
     38 HAM          1.4970    -4.6940     0.8500 ho         1 OAN       0.448000
     39 HAO         -2.5810    -1.5520     0.2640 hn         1 OAN       0.169000
     40 HAT         -4.8240     1.3860    -0.4340 ha         1 OAN       0.128000
     41 HAU         -7.2670     1.1310    -0.5910 ha         1 OAN       0.113000
     42 HAV         -8.3250    -1.1040    -0.2920 ha         1 OAN       0.115000
     43 HAW         -6.9050    -3.1000     0.1700 ha         1 OAN       0.113000
     44 HAX         -4.4400    -2.8640     0.3320 ha         1 OAN       0.128000
@<TRIPOS>BOND
     1     1     2 1   
     2     1    26 1   
     3     1    27 1   
     4     1    28 1   
     5     2     3 2   
     6     2     4 1   
     7     4     5 1   
     8     4    29 1   
     9     5     6 1   
    10     5    14 1   
    11     5    30 1   
    12     6     7 1   
    13     6     8 1   
    14     6    31 1   
    15     7    32 1   
    16     8     9 1   
    17     8    10 1   
    18     8    33 1   
    19     9    34 1   
    20    10    11 1   
    21    10    13 1   
    22    10    35 1   
    23    11    12 1   
    24    11    36 1   
    25    11    37 1   
    26    12    38 1   
    27    13    14 1   
    28    14    15 2   
    29    15    16 1   
    30    16    17 1   
    31    17    18 2   
    32    17    19 1   
    33    19    20 1   
    34    19    39 1   
    35    20    21 ar  
    36    20    25 ar  
    37    21    22 ar  
    38    21    40 1   
    39    22    23 ar  
    40    22    41 1   
    41    23    24 ar  
    42    23    42 1   
    43    24    25 ar  
    44    24    43 1   
    45    25    44 1   
@<TRIPOS>SUBSTRUCTURE
     1 OAN         1 TEMP              0 ****  ****    0 ROOT
