@<TRIPOS>MOLECULE
OAO
   43    45     1     0     0
SMALL
abcg2


@<TRIPOS>ATOM
      1 N1           7.9070    -0.7750    21.0290 ns         1 OAO      -0.147000
      2 N3           8.0250     1.1910    25.3260 nc         1 OAO      -0.734000
      3 C4          11.7110     0.2640    23.7720 ca         1 OAO       0.137100
      4 C5          13.0130    -0.2310    23.6750 ca         1 OAO      -0.117000
      5 C6          13.2290    -1.3620    22.9130 ca         1 OAO       0.157000
      6 C7          12.1970    -2.0170    22.2480 ca         1 OAO      -0.112000
      7 C8          10.9060    -1.5170    22.3590 ca         1 OAO      -0.034300
      8 C10          9.1090    -1.2850    20.6380 c          1 OAO       0.603100
      9 C13          5.4850     1.9930    19.1500 ca         1 OAO       0.310900
     10 C15          5.9980     0.6910    21.1090 ca         1 OAO      -0.091300
     11 C17         10.6620    -0.3700    23.1190 ca         1 OAO      -0.185000
     12 O2           9.6600    -1.0180    19.5790 o          1 OAO      -0.566100
     13 C11          7.0870     0.1680    20.3880 ca         1 OAO      -0.077000
     14 C14          5.1970     1.6190    20.4550 ca         1 OAO      -0.140000
     15 N2           6.5160     1.4940    18.4670 nb         1 OAO      -0.643000
     16 C12          7.2980     0.5980    19.0750 ca         1 OAO       0.319900
     17 C9           9.7570    -2.2090    21.6610 c3         1 OAO      -0.113100
     18 O1          11.5740     1.3820    24.5480 os         1 OAO      -0.324100
     19 C3          10.2990     1.9900    24.6480 c3         1 OAO       0.130300
     20 C2           9.3160     1.1760    25.4300 cd         1 OAO       0.454300
     21 O            9.7610     0.3410    26.3690 os         1 OAO      -0.087700
     22 N            8.6140    -0.2630    26.9360 nd         1 OAO      -0.362300
     23 C1           7.6230     0.2820    26.2870 cc         1 OAO       0.558300
     24 C            6.2020    -0.0520    26.5450 c3         1 OAO      -0.125400
     25 H1           7.5860    -1.0800    21.9340 hn         1 OAO       0.151000
     26 H2          13.8210     0.2690    24.1900 ha         1 OAO       0.149000
     27 H3          12.3990    -2.9010    21.6600 ha         1 OAO       0.138000
     28 H4           4.8630     2.7180    18.6370 h4         1 OAO       0.022100
     29 H5           9.6520     0.0060    23.1860 ha         1 OAO       0.120000
     30 H6           5.5140    -0.7960    22.5920 hc         1 OAO       0.048700
     31 H7           6.5590     0.4970    23.1800 hc         1 OAO       0.048700
     32 H8           4.8420     0.8050    22.9070 hc         1 OAO       0.048700
     33 H9           4.3470     2.0510    20.9680 ha         1 OAO       0.121000
     34 H10          8.1260     0.2020    18.5090 h4         1 OAO       0.054100
     35 H11          9.0260    -2.5450    22.3990 hc         1 OAO       0.074700
     36 H12         10.1220    -3.0830    21.1250 hc         1 OAO       0.074700
     37 H13         10.4650     2.9360    25.1670 h1         1 OAO       0.096200
     38 H14          9.8690     2.2070    23.6680 h1         1 OAO       0.096200
     39 H15          5.6560     0.8490    26.8310 hc         1 OAO       0.066367
     40 H16          5.7450    -0.4450    25.6360 hc         1 OAO       0.066367
     41 H17          6.1210    -0.7910    27.3390 hc         1 OAO       0.066367
     42 C16          5.7130     0.2780    22.5230 c3         1 OAO      -0.058800
     43 CL          14.8570    -1.9920    22.7790 cl         1 OAO      -0.196000
@<TRIPOS>BOND
     1     1     8 1   
     2     1    13 1   
     3     1    25 1   
     4     2    20 2   
     5     2    23 1   
     6     3     4 ar  
     7     3    11 ar  
     8     3    18 1   
     9     4     5 ar  
    10     4    26 1   
    11     5     6 ar  
    12     5    43 1   
    13     6     7 ar  
    14     6    27 1   
    15     7    11 ar  
    16     7    17 1   
    17     8    12 2   
    18     8    17 1   
    19     9    14 ar  
    20     9    15 ar  
    21     9    28 1   
    22    10    13 ar  
    23    10    14 ar  
    24    10    42 1   
    25    11    29 1   
    26    13    16 ar  
    27    14    33 1   
    28    15    16 ar  
    29    16    34 1   
    30    17    35 1   
    31    17    36 1   
    32    18    19 1   
    33    19    20 1   
    34    19    37 1   
    35    19    38 1   
    36    20    21 1   
    37    21    22 1   
    38    22    23 2   
    39    23    24 1   
    40    24    39 1   
    41    24    40 1   
    42    24    41 1   
    43    30    42 1   
    44    31    42 1   
    45    32    42 1   
@<TRIPOS>SUBSTRUCTURE
     1 OAO         1 TEMP              0 ****  ****    0 ROOT
