@<TRIPOS>MOLECULE
OAO
   43    45     1     0     0
SMALL
No Charge or Current Charge


@<TRIPOS>ATOM
      1 N1           7.8820    -0.6760    20.9340 ns         1 OAO      -0.147000
      2 N3           8.0810     0.7630    25.5620 nc         1 OAO      -0.734000
      3 C4          11.5970     0.3550    23.7880 ca         1 OAO       0.137100
      4 C5          12.9040    -0.1340    23.6440 ca         1 OAO      -0.117000
      5 C6          13.1460    -1.2920    22.8910 ca         1 OAO       0.157000
      6 C7          12.0820    -1.9710    22.2770 ca         1 OAO      -0.112000
      7 C8          10.7660    -1.4910    22.4100 ca         1 OAO      -0.034300
      8 C10          9.0190    -1.4010    20.6000 c          1 OAO       0.603100
      9 C13          5.4320     1.8690    18.6790 ca         1 OAO       0.310900
     10 C15          6.0900     0.9840    20.8440 ca         1 OAO      -0.091300
     11 C17         10.5280    -0.3250    23.1640 ca         1 OAO      -0.185000
     12 O2           9.5480    -1.3750    19.4950 o          1 OAO      -0.566100
     13 C11          7.0500     0.1940    20.1710 ca         1 OAO      -0.077000
     14 C14          5.2750     1.8330    20.0740 ca         1 OAO      -0.140000
     15 N2           6.3400     1.1150    18.0230 nb         1 OAO      -0.643000
     16 C12          7.1310     0.2960    18.7580 ca         1 OAO       0.319900
     17 C9           9.6010    -2.2250    21.7540 c3         1 OAO      -0.113100
     18 O1          11.4210     1.5020    24.5390 os         1 OAO      -0.324100
     19 C3          10.1180     2.0600    24.8420 c3         1 OAO       0.130300
     20 C2           9.3270     1.1490    25.7570 cd         1 OAO       0.454300
     21 O            9.8860     0.6400    26.8920 os         1 OAO      -0.087700
     22 N            8.8890    -0.1670    27.4880 nd         1 OAO      -0.362300
     23 C1           7.8800    -0.0350    26.6450 cc         1 OAO       0.558300
     24 C            6.5580    -0.7120    26.8310 c3         1 OAO      -0.125400
     25 H1           7.5920    -0.7800    21.8970 hn         1 OAO       0.151000
     26 H2          13.7310     0.3870    24.1180 ha         1 OAO       0.149000
     27 H3          12.2860    -2.8690    21.6990 ha         1 OAO       0.138000
     28 H4           4.8080     2.5210    18.0680 h4         1 OAO       0.022100
     29 H5           9.5090     0.0390    23.2510 ha         1 OAO       0.120000
     30 H6           5.6750    -0.0680    22.7060 hc         1 OAO       0.048700
     31 H7           6.8650     1.2380    22.8610 hc         1 OAO       0.048700
     32 H8           5.1460     1.6180    22.7090 hc         1 OAO       0.048700
     33 H9           4.5240     2.4630    20.5430 ha         1 OAO       0.121000
     34 H10          7.8340    -0.3000    18.1810 h4         1 OAO       0.054100
     35 H11          8.8280    -2.3940    22.5130 hc         1 OAO       0.074700
     36 H12          9.9380    -3.1890    21.3580 hc         1 OAO       0.074700
     37 H13         10.2340     3.0230    25.3530 h1         1 OAO       0.096200
     38 H14          9.5450     2.2460    23.9260 h1         1 OAO       0.096200
     39 H15          5.7650     0.0290    26.9790 hc         1 OAO       0.066367
     40 H16          6.3050    -1.3120    25.9500 hc         1 OAO       0.066367
     41 H17          6.5720    -1.3760    27.7020 hc         1 OAO       0.066367
     42 C16          5.9350     0.9400    22.3620 c3         1 OAO      -0.058800
     43 Cl          14.7880    -1.8970    22.7190 cl         1 OAO      -0.196000
@<TRIPOS>BOND
     1     1     8 1   
     2     1    13 1   
     3     1    25 1   
     4     2    20 2   
     5     2    23 1   
     6     3     4 ar  
     7     3    11 ar  
     8     3    18 1   
     9     4     5 ar  
    10     4    26 1   
    11     5     6 ar  
    12     5    43 1   
    13     6     7 ar  
    14     6    27 1   
    15     7    11 ar  
    16     7    17 1   
    17     8    12 2   
    18     8    17 1   
    19     9    14 ar  
    20     9    15 ar  
    21     9    28 1   
    22    10    13 ar  
    23    10    14 ar  
    24    10    42 1   
    25    11    29 1   
    26    13    16 ar  
    27    14    33 1   
    28    15    16 ar  
    29    16    34 1   
    30    17    35 1   
    31    17    36 1   
    32    18    19 1   
    33    19    20 1   
    34    19    37 1   
    35    19    38 1   
    36    20    21 1   
    37    21    22 1   
    38    22    23 2   
    39    23    24 1   
    40    24    39 1   
    41    24    40 1   
    42    24    41 1   
    43    30    42 1   
    44    31    42 1   
    45    32    42 1   
@<TRIPOS>SUBSTRUCTURE
     1 OAO         1 TEMP              0 ****  ****    0 ROOT
