@<TRIPOS>MOLECULE
OAP
   72    74     1     0     0
SMALL
No Charge or Current Charge


@<TRIPOS>ATOM
      1 C1           1.2530     0.1190    -2.0650 c3         1 OAP       0.032600
      2 C2           1.8450     0.6930    -0.7580 c3         1 OAP       0.109700
      3 C3           3.2510     0.1150    -0.4580 c3         1 OAP      -0.061400
      4 C31          3.9380     0.7150     0.7980 c3         1 OAP      -0.208400
      5 C32          5.3660     0.1630     0.9360 c          1 OAP       0.717000
      6 O31          5.5250    -0.8740     1.5620 o          1 OAP      -0.739500
      7 O32          6.2710     0.7560     0.3690 o          1 OAP      -0.739500
      8 S11         -0.3530     0.9350    -2.4930 ss         1 OAP      -0.169000
      9 C11         -0.9100     0.1570    -4.0140 ca         1 OAP      -0.084000
     10 C12         -2.1350     0.5780    -4.5620 ca         1 OAP      -0.110500
     11 C13         -2.6210     0.0060    -5.7500 ca         1 OAP      -0.094500
     12 C14         -1.8860    -0.9980    -6.4060 ca         1 OAP      -0.096300
     13 C15         -0.6590    -1.4200    -5.8620 ca         1 OAP      -0.094500
     14 C16         -0.1710    -0.8490    -4.6730 ca         1 OAP      -0.110500
     15 C17         -2.4090    -1.6160    -7.6980 c3         1 OAP       0.019200
     16 C18         -1.9100    -0.8580    -8.9220 ca         1 OAP      -0.072300
     17 C19         -0.7040    -1.2320    -9.5470 ca         1 OAP      -0.104000
     18 C40         -0.2410    -0.5300   -10.6730 ca         1 OAP      -0.110000
     19 C41         -0.9810     0.5510   -11.1810 ca         1 OAP      -0.114000
     20 C42         -2.1830     0.9300   -10.5610 ca         1 OAP      -0.110000
     21 C43         -2.6460     0.2280    -9.4340 ca         1 OAP      -0.104000
     22 N21          0.9330     0.4680     0.3710 ns         1 OAP      -0.495900
     23 C21          0.4270     1.4530     1.1900 c          1 OAP       0.608100
     24 O21          0.6710     2.6400     1.0260 o          1 OAP      -0.610100
     25 C22         -0.4940     0.9500     2.3060 c3         1 OAP      -0.157400
     26 C23          0.2080     1.0030     3.6830 c3         1 OAP      -0.066400
     27 C24         -0.6850     0.4950     4.8360 c3         1 OAP      -0.075400
     28 C25          0.0160     0.5470     6.2110 c3         1 OAP      -0.076400
     29 C26         -0.8770     0.0380     7.3640 c3         1 OAP      -0.073400
     30 C27         -0.1810     0.0890     8.7400 c3         1 OAP      -0.034100
     31 C28         -1.0820    -0.4180     9.8580 ca         1 OAP      -0.071300
     32 C50         -1.0830    -1.7830    10.2060 ca         1 OAP      -0.108000
     33 C51         -1.9190    -2.2520    11.2340 ca         1 OAP      -0.111500
     34 C52         -2.7590    -1.3590    11.9200 ca         1 OAP      -0.118000
     35 C53         -2.7640     0.0030    11.5760 ca         1 OAP      -0.111500
     36 C54         -1.9290     0.4720    10.5480 ca         1 OAP      -0.108000
     37 H11          1.9590     0.2850    -2.8880 h1         1 OAP       0.066700
     38 H12A         1.0900    -0.9600    -1.9540 h1         1 OAP       0.066700
     39 H2           1.9620     1.7750    -0.9090 h1         1 OAP       0.091700
     40 H31          3.8940     0.2930    -1.3290 hc         1 OAP       0.045700
     41 H32          3.1770    -0.9740    -0.3420 hc         1 OAP       0.045700
     42 H311         3.3310     0.4100     1.6590 hc         1 OAP       0.025200
     43 H312         3.9640     1.8000     0.6380 hc         1 OAP       0.025200
     44 H12         -2.7120     1.3540    -4.0640 ha         1 OAP       0.121000
     45 H13         -3.5690     0.3460    -6.1600 ha         1 OAP       0.106000
     46 H15         -0.0790    -2.1920    -6.3620 ha         1 OAP       0.106000
     47 H16          0.7790    -1.1990    -4.2840 ha         1 OAP       0.121000
     48 H171        -2.1060    -2.6680    -7.7590 hc         1 OAP       0.049700
     49 H172        -3.5060    -1.6310    -7.6890 hc         1 OAP       0.049700
     50 H19         -0.1240    -2.0660    -9.1580 ha         1 OAP       0.111000
     51 H40          0.6910    -0.8240   -11.1520 ha         1 OAP       0.109000
     52 H41         -0.6230     1.0940   -12.0530 ha         1 OAP       0.108000
     53 H42         -2.7560     1.7680   -10.9520 ha         1 OAP       0.109000
     54 H43         -3.5760     0.5300    -8.9580 ha         1 OAP       0.111000
     55 HN2          0.6640    -0.4830     0.5910 hn         1 OAP       0.305500
     56 H221        -1.3830     1.5900     2.3450 hc         1 OAP       0.050200
     57 H222        -0.7910    -0.0870     2.1090 hc         1 OAP       0.050200
     58 H231         1.1250     0.4010     3.6430 hc         1 OAP       0.056700
     59 H232         0.5150     2.0360     3.8930 hc         1 OAP       0.056700
     60 H241        -1.6010     1.0970     4.8750 hc         1 OAP       0.033700
     61 H242        -0.9890    -0.5390     4.6270 hc         1 OAP       0.033700
     62 H251         0.9320    -0.0560     6.1720 hc         1 OAP       0.040700
     63 H252         0.3210     1.5800     6.4210 hc         1 OAP       0.040700
     64 H261        -1.7940     0.6400     7.4040 hc         1 OAP       0.040200
     65 H262        -1.1820    -0.9950     7.1560 hc         1 OAP       0.040200
     66 H271         0.7400    -0.5060     8.7000 hc         1 OAP       0.046700
     67 H272         0.1320     1.1200     8.9480 hc         1 OAP       0.046700
     68 H50         -0.4380    -2.4810     9.6780 ha         1 OAP       0.111500
     69 H51         -1.9160    -3.3070    11.4990 ha         1 OAP       0.108000
     70 H52         -3.4060    -1.7220    12.7160 ha         1 OAP       0.107000
     71 H53         -3.4160     0.6960    12.1050 ha         1 OAP       0.108000
     72 H54         -1.9400     1.5280    10.2850 ha         1 OAP       0.111500
@<TRIPOS>BOND
     1     1     2 1   
     2     1     8 1   
     3     1    37 1   
     4     1    38 1   
     5     2     3 1   
     6     2    22 1   
     7     2    39 1   
     8     3     4 1   
     9     3    40 1   
    10     3    41 1   
    11     4     5 1   
    12     4    42 1   
    13     4    43 1   
    14     5     6 1   
    15     5     7 1   
    16     8     9 1   
    17     9    10 ar  
    18     9    14 ar  
    19    10    11 ar  
    20    10    44 1   
    21    11    12 ar  
    22    11    45 1   
    23    12    13 ar  
    24    12    15 1   
    25    13    14 ar  
    26    13    46 1   
    27    14    47 1   
    28    15    16 1   
    29    15    48 1   
    30    15    49 1   
    31    16    17 ar  
    32    16    21 ar  
    33    17    18 ar  
    34    17    50 1   
    35    18    19 ar  
    36    18    51 1   
    37    19    20 ar  
    38    19    52 1   
    39    20    21 ar  
    40    20    53 1   
    41    21    54 1   
    42    22    23 1   
    43    22    55 1   
    44    23    24 2   
    45    23    25 1   
    46    25    26 1   
    47    25    56 1   
    48    25    57 1   
    49    26    27 1   
    50    26    58 1   
    51    26    59 1   
    52    27    28 1   
    53    27    60 1   
    54    27    61 1   
    55    28    29 1   
    56    28    62 1   
    57    28    63 1   
    58    29    30 1   
    59    29    64 1   
    60    29    65 1   
    61    30    31 1   
    62    30    66 1   
    63    30    67 1   
    64    31    32 ar  
    65    31    36 ar  
    66    32    33 ar  
    67    32    68 1   
    68    33    34 ar  
    69    33    69 1   
    70    34    35 ar  
    71    34    70 1   
    72    35    36 ar  
    73    35    71 1   
    74    36    72 1   
@<TRIPOS>SUBSTRUCTURE
     1 OAP         1 TEMP              0 ****  ****    0 ROOT
