@<TRIPOS>MOLECULE
OAP
   72    74     1     0     0
SMALL
abcg2


@<TRIPOS>ATOM
      1 C1           1.7620    -0.6510    -2.0940 c3         1 OAP       0.032600
      2 C2           2.4960    -0.0270    -0.9080 c3         1 OAP       0.109700
      3 C3           3.9730    -0.4180    -0.9410 c3         1 OAP      -0.061400
      4 C31          4.7960     0.2640     0.1380 c3         1 OAP      -0.208400
      5 C32          6.3040    -0.0470     0.1060 c          1 OAP       0.717000
      6 O31          6.6940    -0.9510    -0.6590 o          1 OAP      -0.739500
      7 O32          7.0180     0.6350     0.8700 o          1 OAP      -0.739500
      8 S11          0.0100    -0.1850    -2.0220 ss         1 OAP      -0.169000
      9 C11         -0.5930    -0.6180    -3.6200 ca         1 OAP      -0.084000
     10 C12         -1.8250    -0.0770    -4.0010 ca         1 OAP      -0.110500
     11 C13         -2.3760    -0.3870    -5.2310 ca         1 OAP      -0.094500
     12 C14         -1.7210    -1.2350    -6.1240 ca         1 OAP      -0.096300
     13 C15         -0.5010    -1.7700    -5.7350 ca         1 OAP      -0.094500
     14 C16          0.0620    -1.4750    -4.4980 ca         1 OAP      -0.110500
     15 C17         -2.3120    -1.5280    -7.4800 c3         1 OAP       0.019200
     16 C18         -2.2390    -0.3280    -8.3910 ca         1 OAP      -0.072300
     17 C19         -1.0260     0.0480    -8.9660 ca         1 OAP      -0.104000
     18 C40         -0.9420     1.1680    -9.7800 ca         1 OAP      -0.110000
     19 C41         -2.0740     1.9360   -10.0290 ca         1 OAP      -0.114000
     20 C42         -3.2870     1.5710    -9.4630 ca         1 OAP      -0.110000
     21 C43         -3.3670     0.4450    -8.6510 ca         1 OAP      -0.104000
     22 N21          1.8700    -0.4100     0.3400 ns         1 OAP      -0.495900
     23 C21          1.2390     0.4350     1.1780 c          1 OAP       0.608100
     24 O21          1.1670     1.6400     0.9860 o          1 OAP      -0.610100
     25 C22          0.5830    -0.2340     2.3680 c3         1 OAP      -0.157400
     26 C23          0.4540     0.6730     3.5830 c3         1 OAP      -0.066400
     27 C24         -0.2750    -0.0090     4.7330 c3         1 OAP      -0.075400
     28 C25         -0.4190     0.8860     5.9560 c3         1 OAP      -0.076400
     29 C26         -1.1570     0.2110     7.1050 c3         1 OAP      -0.073400
     30 C27         -1.2880     1.1130     8.3330 c3         1 OAP      -0.034100
     31 C28         -2.0110     0.4350     9.4630 ca         1 OAP      -0.071300
     32 C50         -1.3410    -0.4570    10.2990 ca         1 OAP      -0.108000
     33 C51         -2.0090    -1.1220    11.3170 ca         1 OAP      -0.111500
     34 C52         -3.3670    -0.9060    11.5180 ca         1 OAP      -0.118000
     35 C53         -4.0460    -0.0200    10.6930 ca         1 OAP      -0.111500
     36 C54         -3.3720     0.6430     9.6750 ca         1 OAP      -0.108000
     37 H11          2.1940    -0.2780    -3.0240 h1         1 OAP       0.066700
     38 H12A         1.8650    -1.7380    -2.0770 h1         1 OAP       0.066700
     39 H2           2.4150     1.0580    -0.9840 h1         1 OAP       0.091700
     40 H31          4.3660    -0.1560    -1.9270 hc         1 OAP       0.045700
     41 H32          4.0640    -1.5050    -0.8570 hc         1 OAP       0.045700
     42 H311         4.4200    -0.0200     1.1270 hc         1 OAP       0.025200
     43 H312         4.6590     1.3490     0.0810 hc         1 OAP       0.025200
     44 H12         -2.3520     0.5960    -3.3350 ha         1 OAP       0.121000
     45 H13         -3.3290     0.0510    -5.5030 ha         1 OAP       0.106000
     46 H15          0.0310    -2.4390    -6.4010 ha         1 OAP       0.106000
     47 H16          1.0090    -1.9250    -4.2370 ha         1 OAP       0.121000
     48 H171        -1.7800    -2.3670    -7.9340 hc         1 OAP       0.049700
     49 H172        -3.3540    -1.8370    -7.3720 hc         1 OAP       0.049700
     50 H19         -0.1380    -0.5450    -8.7770 ha         1 OAP       0.111000
     51 H40          0.0070     1.4420   -10.2230 ha         1 OAP       0.109000
     52 H41         -2.0100     2.8100   -10.6640 ha         1 OAP       0.108000
     53 H42         -4.1750     2.1590    -9.6540 ha         1 OAP       0.109000
     54 H43         -4.3200     0.1620    -8.2190 ha         1 OAP       0.111000
     55 HN2          1.8930    -1.3890     0.5820 hn         1 OAP       0.305500
     56 H221        -0.4130    -0.5580     2.0450 hc         1 OAP       0.050200
     57 H222         1.1210    -1.1480     2.6350 hc         1 OAP       0.050200
     58 H231         1.4480     0.9860     3.9180 hc         1 OAP       0.056700
     59 H232        -0.0790     1.5860     3.3060 hc         1 OAP       0.056700
     60 H241        -1.2680    -0.3250     4.3950 hc         1 OAP       0.033700
     61 H242         0.2550    -0.9260     5.0130 hc         1 OAP       0.033700
     62 H251         0.5740     1.1990     6.2970 hc         1 OAP       0.040700
     63 H252        -0.9460     1.8050     5.6750 hc         1 OAP       0.040700
     64 H261        -2.1540    -0.0950     6.7730 hc         1 OAP       0.040200
     65 H262        -0.6320    -0.7080     7.3860 hc         1 OAP       0.040200
     66 H271        -0.2900     1.4160     8.6620 hc         1 OAP       0.046700
     67 H272        -1.8150     2.0290     8.0510 hc         1 OAP       0.046700
     68 H50         -0.2810    -0.6310    10.1520 ha         1 OAP       0.111500
     69 H51         -1.4680    -1.8080    11.9570 ha         1 OAP       0.108000
     70 H52         -3.8900    -1.4210    12.3130 ha         1 OAP       0.107000
     71 H53         -5.1030     0.1600    10.8440 ha         1 OAP       0.108000
     72 H54         -3.9120     1.3350     9.0390 ha         1 OAP       0.111500
@<TRIPOS>BOND
     1     1     2 1   
     2     1     8 1   
     3     1    37 1   
     4     1    38 1   
     5     2     3 1   
     6     2    22 1   
     7     2    39 1   
     8     3     4 1   
     9     3    40 1   
    10     3    41 1   
    11     4     5 1   
    12     4    42 1   
    13     4    43 1   
    14     5     6 1   
    15     5     7 1   
    16     8     9 1   
    17     9    10 ar  
    18     9    14 ar  
    19    10    11 ar  
    20    10    44 1   
    21    11    12 ar  
    22    11    45 1   
    23    12    13 ar  
    24    12    15 1   
    25    13    14 ar  
    26    13    46 1   
    27    14    47 1   
    28    15    16 1   
    29    15    48 1   
    30    15    49 1   
    31    16    17 ar  
    32    16    21 ar  
    33    17    18 ar  
    34    17    50 1   
    35    18    19 ar  
    36    18    51 1   
    37    19    20 ar  
    38    19    52 1   
    39    20    21 ar  
    40    20    53 1   
    41    21    54 1   
    42    22    23 1   
    43    22    55 1   
    44    23    24 2   
    45    23    25 1   
    46    25    26 1   
    47    25    56 1   
    48    25    57 1   
    49    26    27 1   
    50    26    58 1   
    51    26    59 1   
    52    27    28 1   
    53    27    60 1   
    54    27    61 1   
    55    28    29 1   
    56    28    62 1   
    57    28    63 1   
    58    29    30 1   
    59    29    64 1   
    60    29    65 1   
    61    30    31 1   
    62    30    66 1   
    63    30    67 1   
    64    31    32 ar  
    65    31    36 ar  
    66    32    33 ar  
    67    32    68 1   
    68    33    34 ar  
    69    33    69 1   
    70    34    35 ar  
    71    34    70 1   
    72    35    36 ar  
    73    35    71 1   
    74    36    72 1   
@<TRIPOS>SUBSTRUCTURE
     1 OAP         1 TEMP              0 ****  ****    0 ROOT
