@<TRIPOS>MOLECULE
OAQ
   41    42     1     0     0
SMALL
No Charge or Current Charge


@<TRIPOS>ATOM
      1 C1           2.2340     1.6050     0.0420 ca         1 OAQ      -0.064000
      2 C2           3.1140     0.4990    -0.0110 ca         1 OAQ      -0.064300
      3 C3           2.5640    -0.8080    -0.1480 ca         1 OAQ      -0.129200
      4 C4           1.1580    -0.9710    -0.1840 ca         1 OAQ      -0.137000
      5 C5           0.3010     0.1340    -0.1130 ca         1 OAQ       0.312000
      6 C6           0.8390     1.4320    -0.0110 ca         1 OAQ      -0.111300
      7 C7          -2.0540     1.0240     0.1490 c6         1 OAQ       0.223500
      8 C8          -1.5090     2.3440    -0.4520 c6         1 OAQ      -0.086400
      9 C9          -0.0860     2.6530     0.0730 c6         1 OAQ      -0.028100
     10 C10          4.6310     0.7400     0.0820 c3         1 OAQ       0.214900
     11 C11         -3.5000     0.7070    -0.3790 c3         1 OAQ       0.153800
     12 C12         -5.8110    -2.2750     0.2220 c3         1 OAQ      -0.092600
     13 C13         -6.5230     0.1760     0.2860 c3         1 OAQ      -0.092600
     14 C14         -5.4810    -0.8400    -0.2350 c3         1 OAQ       0.176500
     15 N1          -1.0840    -0.0540    -0.1600 nu         1 OAQ      -0.943200
     16 N2           3.4250    -2.0260    -0.2690 no         1 OAQ       0.688200
     17 N3          -4.1260    -0.4970     0.2370 n7         1 OAQ      -0.872400
     18 O1           3.0520    -3.0550     0.3100 o          1 OAQ      -0.405500
     19 O2           4.3650    -1.9960    -1.0750 o          1 OAQ      -0.405500
     20 O3           4.9450     1.8530     0.9330 oh         1 OAQ      -0.669000
     21 H1           2.6350     2.6120     0.1320 ha         1 OAQ       0.140000
     22 H2           0.7290    -1.9650    -0.2840 ha         1 OAQ       0.146000
     23 H3          -2.1180     1.1550     1.2410 h1         1 OAQ       0.048700
     24 H4          -1.4850     2.2660    -1.5480 hc         1 OAQ       0.055200
     25 H5          -2.1830     3.1770    -0.2110 hc         1 OAQ       0.055200
     26 H6          -0.1470     2.9820     1.1200 hc         1 OAQ       0.057200
     27 H7           0.3400     3.4930    -0.4920 hc         1 OAQ       0.057200
     28 H8           5.1270    -0.1570     0.4760 h1         1 OAQ       0.048200
     29 H9           5.0210     0.9120    -0.9310 h1         1 OAQ       0.048200
     30 H10         -4.1170     1.5940    -0.1810 h1         1 OAQ       0.040200
     31 H11         -3.4460     0.5890    -1.4700 h1         1 OAQ       0.040200
     32 H12         -6.8040    -2.5720    -0.1370 hc         1 OAQ       0.039033
     33 H13         -5.0820    -2.9890    -0.1800 hc         1 OAQ       0.039033
     34 H14         -5.8050    -2.3510     1.3160 hc         1 OAQ       0.039033
     35 H15         -6.3440     1.1760    -0.1260 hc         1 OAQ       0.039033
     36 H16         -7.5330    -0.1270    -0.0120 hc         1 OAQ       0.039033
     37 H17         -6.4940     0.2410     1.3800 hc         1 OAQ       0.039033
     38 H18         -5.5060    -0.8300    -1.3330 h1         1 OAQ       0.020700
     39 H19         -1.4070    -1.0200    -0.1410 hn         1 OAQ       0.478000
     40 H20         -3.5220    -1.2970     0.0250 hn         1 OAQ       0.409000
     41 H22          5.9250     1.9370     0.9410 ho         1 OAQ       0.452000
@<TRIPOS>BOND
     1     1     2 ar  
     2     1     6 ar  
     3     1    21 1   
     4     2     3 ar  
     5     2    10 1   
     6     3     4 ar  
     7     3    16 1   
     8     4     5 ar  
     9     4    22 1   
    10     5     6 ar  
    11     5    15 1   
    12     6     9 1   
    13     7     8 1   
    14     7    11 1   
    15     7    15 1   
    16     7    23 1   
    17     8     9 1   
    18     8    24 1   
    19     8    25 1   
    20     9    26 1   
    21     9    27 1   
    22    10    20 1   
    23    10    28 1   
    24    10    29 1   
    25    11    17 1   
    26    11    30 1   
    27    11    31 1   
    28    12    14 1   
    29    12    32 1   
    30    12    33 1   
    31    12    34 1   
    32    13    14 1   
    33    13    35 1   
    34    13    36 1   
    35    13    37 1   
    36    14    17 1   
    37    14    38 1   
    38    15    39 1   
    39    16    18 1   
    40    16    19 1   
    41    17    40 1   
    42    20    41 1   
@<TRIPOS>SUBSTRUCTURE
     1 OAQ         1 TEMP              0 ****  ****    0 ROOT
