@<TRIPOS>MOLECULE
OAQ
   41    42     1     0     0
SMALL
bcc


@<TRIPOS>ATOM
      1 C1           2.1580     1.5350     0.0540 ca         1 OAQ      -0.082000
      2 C2           3.0510     0.4670     0.0420 ca         1 OAQ      -0.064300
      3 C3           2.4580    -0.7990    -0.0090 ca         1 OAQ      -0.129200
      4 C4           1.0840    -0.9860    -0.0490 ca         1 OAQ      -0.155000
      5 C5           0.2200     0.1050    -0.0530 ca         1 OAQ       0.173600
      6 C6           0.7800     1.3910     0.0130 ca         1 OAQ      -0.111300
      7 C7          -2.0670     1.0020     0.0640 c6         1 OAQ       0.223500
      8 C8          -1.4880     2.2720    -0.5420 c6         1 OAQ      -0.086400
      9 C9          -0.1250     2.5900     0.0540 c6         1 OAQ      -0.028100
     10 C10          4.5370     0.7300     0.1110 c3         1 OAQ       0.191700
     11 C11         -3.4170     0.6730    -0.5590 c3         1 OAQ       0.153800
     12 C12         -5.7740    -2.1930    -0.1160 c3         1 OAQ      -0.092600
     13 C13         -6.1900     0.1240     0.7270 c3         1 OAQ      -0.092600
     14 C14         -5.4070    -0.7240    -0.2660 c3         1 OAQ       0.176500
     15 N1          -1.1360    -0.0890    -0.1560 nu         1 OAQ      -0.749600
     16 N2           3.2640    -2.0070    -0.0350 no         1 OAQ       0.308200
     17 N3          -3.9680    -0.5720    -0.0540 n7         1 OAQ      -0.817200
     18 O1           2.7690    -3.0390     0.3580 o          1 OAQ      -0.215500
     19 O2           4.3960    -1.9320    -0.4590 o          1 OAQ      -0.215500
     20 O3           4.7500     2.0730     0.4700 oh         1 OAQ      -0.606800
     21 H1           2.5520     2.5410     0.1100 ha         1 OAQ       0.158000
     22 H2           0.6750    -1.9860    -0.1000 ha         1 OAQ       0.164000
     23 H3          -2.2230     1.1650     1.1410 h1         1 OAQ       0.048700
     24 H4          -1.3990     2.1450    -1.6250 hc         1 OAQ       0.055200
     25 H5          -2.1770     3.1000    -0.3700 hc         1 OAQ       0.055200
     26 H6          -0.2440     2.9130     1.0940 hc         1 OAQ       0.057200
     27 H7           0.3380     3.4260    -0.4730 hc         1 OAQ       0.057200
     28 H8           5.0030     0.0550     0.8370 h1         1 OAQ       0.048200
     29 H9           4.9900     0.5070    -0.8610 h1         1 OAQ       0.048200
     30 H10         -4.0930     1.4910    -0.3040 h1         1 OAQ       0.040200
     31 H11         -3.3210     0.6770    -1.6560 h1         1 OAQ       0.040200
     32 H12         -6.8420    -2.3420    -0.2730 hc         1 OAQ       0.039033
     33 H13         -5.2450    -2.8130    -0.8430 hc         1 OAQ       0.039033
     34 H14         -5.5240    -2.5560     0.8840 hc         1 OAQ       0.039033
     35 H15         -5.9780     1.1890     0.6230 hc         1 OAQ       0.039033
     36 H16         -7.2630    -0.0050     0.5770 hc         1 OAQ       0.039033
     37 H17         -5.9500    -0.1680     1.7510 hc         1 OAQ       0.039033
     38 H18         -5.6890    -0.4080    -1.2840 h1         1 OAQ       0.020700
     39 H19         -1.4520    -0.9860     0.1810 hn         1 OAQ       0.422800
     40 H20         -3.5080    -1.3390    -0.5290 hn         1 OAQ       0.353800
     41 H22          5.6930     2.2440     0.4060 ho         1 OAQ       0.413000
@<TRIPOS>BOND
     1     1     2 ar  
     2     1     6 ar  
     3     1    21 1   
     4     2     3 ar  
     5     2    10 1   
     6     3     4 ar  
     7     3    16 1   
     8     4     5 ar  
     9     4    22 1   
    10     5     6 ar  
    11     5    15 1   
    12     6     9 1   
    13     7     8 1   
    14     7    11 1   
    15     7    15 1   
    16     7    23 1   
    17     8     9 1   
    18     8    24 1   
    19     8    25 1   
    20     9    26 1   
    21     9    27 1   
    22    10    20 1   
    23    10    28 1   
    24    10    29 1   
    25    11    17 1   
    26    11    30 1   
    27    11    31 1   
    28    12    14 1   
    29    12    32 1   
    30    12    33 1   
    31    12    34 1   
    32    13    14 1   
    33    13    35 1   
    34    13    36 1   
    35    13    37 1   
    36    14    17 1   
    37    14    38 1   
    38    15    39 1   
    39    16    18 1   
    40    16    19 1   
    41    17    40 1   
    42    20    41 1   
@<TRIPOS>SUBSTRUCTURE
     1 OAQ         1 TEMP              0 ****  ****    0 ROOT
