@<TRIPOS>MOLECULE
OAR
   27    26     1     0     0
SMALL
No Charge or Current Charge


@<TRIPOS>ATOM
      1 O            5.0140     0.0010    -0.3560 oh         1 OAR      -0.667000
      2 N1           2.7250    -1.3990     0.6040 n8         1 OAR      -0.989200
      3 NE          -2.5280    -0.2810    -0.1300 nu         1 OAR      -0.900400
      4 NH1         -4.5470    -0.8620    -0.2630 nv         1 OAR      -1.065200
      5 NH2         -4.0960     1.2720     0.4520 n2         1 OAR      -0.898100
      6 CA           2.5520    -0.1910    -0.2370 c3         1 OAR       0.157500
      7 CB           1.2370     0.5560     0.1070 c3         1 OAR      -0.067400
      8 CG          -0.0520    -0.2630    -0.1530 c3         1 OAR      -0.085400
      9 CD          -1.3370     0.5330     0.1490 c3         1 OAR       0.223800
     10 CZ          -3.7700     0.1470     0.0290 c2         1 OAR       0.793100
     11 C            3.7990     0.7380    -0.1220 c3         1 OAR       0.119600
     12 HO           5.7580     0.6400    -0.2850 ho         1 OAR       0.447000
     13 H            3.7040    -1.6910     0.4840 hn         1 OAR       0.398000
     14 H2           2.6950    -1.1170     1.5890 hn         1 OAR       0.398000
     15 HE          -2.4470    -1.2720     0.0500 hn         1 OAR       0.464000
     16 HH11        -4.1970    -1.3630    -1.0680 hn         1 OAR       0.449000
     17 HH12        -5.5230    -0.6100    -0.3410 hn         1 OAR       0.449000
     18 HH2         -5.1190     1.2960     0.5190 hn         1 OAR       0.376400
     19 HA           2.4930    -0.5190    -1.2860 h1         1 OAR       0.070700
     20 HB2          1.2610     0.8720     1.1570 hc         1 OAR       0.039200
     21 HB3          1.1920     1.4730    -0.4940 hc         1 OAR       0.039200
     22 HG2         -0.0670    -0.5850    -1.2020 hc         1 OAR       0.053200
     23 HG3         -0.0410    -1.1700     0.4640 hc         1 OAR       0.053200
     24 HD2         -1.3510     1.4420    -0.4690 h1         1 OAR       0.048200
     25 HD3         -1.3300     0.8430     1.2040 h1         1 OAR       0.048200
     26 HC1          3.8220     1.1880     0.8800 h1         1 OAR       0.022200
     27 HC2          3.7050     1.5550    -0.8500 h1         1 OAR       0.022200
@<TRIPOS>BOND
     1     1    11 1   
     2     1    12 1   
     3     2     6 1   
     4     2    13 1   
     5     2    14 1   
     6     3     9 1   
     7     3    10 1   
     8     3    15 1   
     9     4    10 1   
    10     4    16 1   
    11     4    17 1   
    12     5    10 2   
    13     5    18 1   
    14     6     7 1   
    15     6    11 1   
    16     6    19 1   
    17     7     8 1   
    18     7    20 1   
    19     7    21 1   
    20     8     9 1   
    21     8    22 1   
    22     8    23 1   
    23     9    24 1   
    24     9    25 1   
    25    11    26 1   
    26    11    27 1   
@<TRIPOS>SUBSTRUCTURE
     1 OAR         1 TEMP              0 ****  ****    0 ROOT
