@<TRIPOS>MOLECULE
OAR
   27    26     1     0     0
SMALL
bcc


@<TRIPOS>ATOM
      1 O            4.9150     0.1030    -0.4180 oh         1 OAR      -0.604800
      2 N1           2.7020    -1.3010     0.7950 n8         1 OAR      -0.878800
      3 NE          -2.4300    -0.4070    -0.1110 nu         1 OAR      -0.845200
      4 NH1         -4.6950    -0.7870    -0.2950 nv         1 OAR      -0.954800
      5 NH2         -3.8670     1.1780     0.7370 n2         1 OAR      -0.898100
      6 CA           2.5580    -0.2160    -0.1650 c3         1 OAR       0.157500
      7 CB           1.2410     0.5200     0.0580 c3         1 OAR      -0.067400
      8 CG           0.0070    -0.3560    -0.1100 c3         1 OAR      -0.085400
      9 CD          -1.2750     0.4380     0.0890 c3         1 OAR       0.223800
     10 CZ          -3.6920     0.0690     0.1150 c2         1 OAR       0.793100
     11 C            3.7100     0.7840    -0.1440 c3         1 OAR       0.096400
     12 HO           5.6460     0.7100    -0.2700 ho         1 OAR       0.408000
     13 H            3.6010    -1.7490     0.6640 hn         1 OAR       0.342800
     14 H2           2.7250    -0.9140     1.7320 hn         1 OAR       0.342800
     15 HE          -2.3360    -1.0920    -0.8440 hn         1 OAR       0.408800
     16 HH11        -4.4820    -1.4050    -1.0630 hn         1 OAR       0.393800
     17 HH12        -5.5990    -0.3580    -0.4060 hn         1 OAR       0.393800
     18 HH2         -4.8550     1.3600     0.8670 hn         1 OAR       0.376400
     19 HA           2.5290    -0.6670    -1.1660 h1         1 OAR       0.070700
     20 HB2          1.2440     0.9650     1.0610 hc         1 OAR       0.039200
     21 HB3          1.1860     1.3570    -0.6440 hc         1 OAR       0.039200
     22 HG2          0.0140    -0.7960    -1.1130 hc         1 OAR       0.053200
     23 HG3          0.0370    -1.1880     0.5960 hc         1 OAR       0.053200
     24 HD2         -1.2860     1.3010    -0.5890 h1         1 OAR       0.048200
     25 HD3         -1.3050     0.8420     1.1020 h1         1 OAR       0.048200
     26 HC1          3.7370     1.2690     0.8420 h1         1 OAR       0.022200
     27 HC2          3.5200     1.5720    -0.8850 h1         1 OAR       0.022200
@<TRIPOS>BOND
     1     1    11 1   
     2     1    12 1   
     3     2     6 1   
     4     2    13 1   
     5     2    14 1   
     6     3     9 1   
     7     3    10 1   
     8     3    15 1   
     9     4    10 1   
    10     4    16 1   
    11     4    17 1   
    12     5    10 2   
    13     5    18 1   
    14     6     7 1   
    15     6    11 1   
    16     6    19 1   
    17     7     8 1   
    18     7    20 1   
    19     7    21 1   
    20     8     9 1   
    21     8    22 1   
    22     8    23 1   
    23     9    24 1   
    24     9    25 1   
    25    11    26 1   
    26    11    27 1   
@<TRIPOS>SUBSTRUCTURE
     1 OAR         1 TEMP              0 ****  ****    0 ROOT
