@<TRIPOS>MOLECULE
OAS
   18    17     1     0     0
SMALL
bcc


@<TRIPOS>ATOM
      1 N           30.9830    33.3190   195.3730 n8         1 OAS      -0.871800
      2 CA          31.4520    34.6910   195.5570 c3         1 OAS       0.009500
      3 CB          30.2500    35.4750   196.0590 c3         1 OAS       0.161400
      4 OG          30.6270    36.8530   196.1700 os         1 OAS      -0.394900
      5 C           32.6030    34.7540   196.5960 c          1 OAS       0.930600
      6 O           33.5870    35.4570   196.2980 o          1 OAS      -0.823800
      7 C2A         30.2450    39.1230   196.5920 c3         1 OAS      -0.157100
      8 C1A         29.7230    37.7160   196.6120 c          1 OAS       0.643100
      9 OAC         28.6140    37.3970   196.9650 o          1 OAS      -0.576000
     10 OXT         32.4300    34.1050   197.6450 o          1 OAS      -0.823800
     11 H2          31.7720    32.6900   195.3050 hn         1 OAS       0.316800
     12 H           30.4960    33.2480   194.4880 hn         1 OAS       0.316800
     13 HA          31.7960    35.1490   194.6190 h1         1 OAS       0.015700
     14 HB2         29.4090    35.3790   195.3660 h1         1 OAS       0.039700
     15 HB3         29.9370    35.0840   197.0300 h1         1 OAS       0.039700
     16 HC21        29.5790    39.7840   197.1390 hc         1 OAS       0.058033
     17 HC22        31.2470    39.1820   197.0170 hc         1 OAS       0.058033
     18 HC23        30.3120    39.4740   195.5610 hc         1 OAS       0.058033
@<TRIPOS>BOND
     1     1     2 1   
     2     1    11 1   
     3     1    12 1   
     4     2     3 1   
     5     2     5 1   
     6     2    13 1   
     7     3     4 1   
     8     3    14 1   
     9     3    15 1   
    10     4     8 1   
    11     5     6 1   
    12     5    10 1   
    13     7     8 1   
    14     7    16 1   
    15     7    17 1   
    16     7    18 1   
    17     8     9 2   
@<TRIPOS>SUBSTRUCTURE
     1 OAS         1 TEMP              0 ****  ****    0 ROOT
