@<TRIPOS>MOLECULE
OAS
   18    17     1     0     0
SMALL
No Charge or Current Charge


@<TRIPOS>ATOM
      1 N           31.0460    33.2160   195.2670 n8         1 OAS      -0.871800
      2 CA          31.4470    34.6340   195.6320 c3         1 OAS       0.009500
      3 CB          30.2260    35.4490   196.1300 c3         1 OAS       0.161400
      4 OG          30.6010    36.8360   196.1860 os         1 OAS      -0.394900
      5 C           32.6590    34.8030   196.6410 c          1 OAS       0.930600
      6 O           33.7640    35.0830   196.1820 o          1 OAS      -0.823800
      7 C2A         30.2100    39.1610   196.6080 c3         1 OAS      -0.157100
      8 C1A         29.6600    37.7400   196.6020 c          1 OAS       0.643100
      9 OAC         28.5150    37.4540   196.9300 o          1 OAS      -0.576000
     10 OXT         32.4900    34.5590   197.8340 o          1 OAS      -0.823800
     11 H2          31.8480    32.7360   194.8430 hn         1 OAS       0.316800
     12 H           30.3380    33.2380   194.5270 hn         1 OAS       0.316800
     13 HA          31.7670    35.0960   194.6880 h1         1 OAS       0.015700
     14 HB2         29.3890    35.3120   195.4320 h1         1 OAS       0.039700
     15 HB3         29.9120    35.0850   197.1170 h1         1 OAS       0.039700
     16 HC21        29.4710    39.8990   196.9380 hc         1 OAS       0.058033
     17 HC22        31.1160    39.1870   197.2240 hc         1 OAS       0.058033
     18 HC23        30.6020    39.3930   195.6120 hc         1 OAS       0.058033
@<TRIPOS>BOND
     1     1     2 1   
     2     1    11 1   
     3     1    12 1   
     4     2     3 1   
     5     2     5 1   
     6     2    13 1   
     7     3     4 1   
     8     3    14 1   
     9     3    15 1   
    10     4     8 1   
    11     5     6 1   
    12     5    10 1   
    13     7     8 1   
    14     7    16 1   
    15     7    17 1   
    16     7    18 1   
    17     8     9 2   
@<TRIPOS>SUBSTRUCTURE
     1 OAS         1 TEMP              0 ****  ****    0 ROOT
