@<TRIPOS>MOLECULE
OAT
   59    62     1     0     0
SMALL
abcg2


@<TRIPOS>ATOM
      1 C2          23.1980   -20.1460    15.7820 ca         1 OAT       0.000000
      2 C1          22.9170   -19.3460    16.8780 ca         1 OAT      -0.148000
      3 N           30.3100   -23.6080    13.7050 nh         1 OAT      -0.807300
      4 C           23.3400   -18.0250    16.9190 ca         1 OAT       0.180100
      5 O           23.0500   -17.2850    17.9970 oh         1 OAT      -0.522100
      6 O9          23.3230   -21.7010    13.2630 o          1 OAT      -0.528500
      7 O8          24.5530   -19.7880    12.1780 o          1 OAT      -0.528500
      8 C5          23.9100   -19.6090    14.7220 ca         1 OAT      -0.274500
      9 C4          24.3420   -18.2850    14.7380 ca         1 OAT      -0.069000
     10 C3          24.0610   -17.4930    15.8350 ca         1 OAT       0.026100
     11 C6          25.8700   -21.3590    13.8080 ca         1 OAT      -0.259500
     12 C24         25.8980   -22.6170    14.3890 ca         1 OAT      -0.020000
     13 C23         27.1220   -23.1590    14.7550 ca         1 OAT      -0.115500
     14 C9          28.3030   -22.4580    14.5480 ca         1 OAT      -0.058300
     15 C8          28.2480   -21.1900    13.9720 ca         1 OAT      -0.115500
     16 C7          27.0380   -20.6380    13.5930 ca         1 OAT      -0.020000
     17 C10         29.6270   -23.0900    14.8900 c3         1 OAT       0.276100
     18 C17         29.6570   -24.5830    12.9060 ca         1 OAT       0.263000
     19 C22         28.7240   -24.1970    11.9460 ca         1 OAT      -0.162000
     20 C21         28.0430   -25.1480    11.2080 ca         1 OAT       0.048100
     21 O7          27.1200   -24.8590    10.2630 oh         1 OAT      -0.555100
     22 C20         28.2930   -26.5120    11.4250 ca         1 OAT       0.136100
     23 O6          27.6470   -27.4660    10.7300 oh         1 OAT      -0.529100
     24 C19         29.2240   -26.8860    12.3810 ca         1 OAT      -0.119000
     25 C18         29.9040   -25.9290    13.1220 ca         1 OAT      -0.076000
     26 S1          31.7790   -23.0040    13.2510 sy         1 OAT       1.196600
     27 O4          32.2680   -23.8820    12.2030 o          1 OAT      -0.531000
     28 O5          32.5720   -22.7950    14.4520 o          1 OAT      -0.531000
     29 C11         31.4540   -21.4130    12.5590 ca         1 OAT      -0.303500
     30 C16         30.8390   -21.3340    11.3100 ca         1 OAT      -0.070000
     31 C15         30.4810   -20.1000    10.8050 ca         1 OAT       0.025100
     32 O3          29.8750   -19.9080     9.6180 oh         1 OAT      -0.557100
     33 C14         30.7500   -18.9320    11.5440 ca         1 OAT       0.177100
     34 O2          30.4130   -17.7210    11.0820 oh         1 OAT      -0.524100
     35 C13         31.3790   -19.0330    12.7740 ca         1 OAT      -0.157000
     36 C12         31.7330   -20.2720    13.2910 ca         1 OAT      -0.005000
     37 H2          22.8620   -21.1740    15.7710 ha         1 OAT       0.141000
     38 H1          22.3610   -19.7470    17.7160 ha         1 OAT       0.139000
     39 H           23.4000   -16.3900    17.9070 ho         1 OAT       0.491000
     40 H3          24.9510   -15.9100    15.1980 ho         1 OAT       0.482000
     41 H4          24.8920   -17.8680    13.9020 ha         1 OAT       0.134000
     42 H20         24.9870   -23.1760    14.5540 ha         1 OAT       0.136500
     43 H19         27.1550   -24.1480    15.1970 ha         1 OAT       0.124500
     44 H6          29.1580   -20.6280    13.8090 ha         1 OAT       0.124500
     45 H5          27.0150   -19.6550    13.1410 ha         1 OAT       0.136500
     46 H7          30.2730   -22.3650    15.3850 h1         1 OAT       0.069200
     47 H8          29.4790   -23.9100    15.5960 h1         1 OAT       0.069200
     48 H18         28.5230   -23.1450    11.7750 ha         1 OAT       0.118000
     49 H17         26.9760   -23.9080    10.1910 ho         1 OAT       0.478000
     50 H16         27.0280   -27.0710    10.1040 ho         1 OAT       0.486000
     51 H15         29.4150   -27.9390    12.5450 ha         1 OAT       0.138000
     52 H14         30.6230   -26.2330    13.8710 ha         1 OAT       0.130000
     53 H13         30.6370   -22.2260    10.7280 ha         1 OAT       0.133000
     54 H12         29.7190   -20.7410     9.1580 ho         1 OAT       0.482000
     55 H11         29.9900   -17.7850    10.2160 ho         1 OAT       0.493000
     56 H10         31.5900   -18.1310    13.3340 ha         1 OAT       0.138000
     57 H9          32.2090   -20.3290    14.2590 ha         1 OAT       0.146000
     58 O1          24.4260   -16.2010    15.9530 oh         1 OAT      -0.558100
     59 S           24.3160   -20.6360    13.3430 sy         1 OAT       1.029000
@<TRIPOS>BOND
     1     1     2 ar  
     2     1     8 ar  
     3     1    37 1   
     4     2     4 ar  
     5     2    38 1   
     6     3    17 1   
     7     3    18 1   
     8     3    26 1   
     9     4     5 1   
    10     4    10 ar  
    11     5    39 1   
    12     6    59 2   
    13     7    59 2   
    14     8     9 ar  
    15     8    59 1   
    16     9    10 ar  
    17     9    41 1   
    18    10    58 1   
    19    11    12 ar  
    20    11    16 ar  
    21    11    59 1   
    22    12    13 ar  
    23    12    42 1   
    24    13    14 ar  
    25    13    43 1   
    26    14    15 ar  
    27    14    17 1   
    28    15    16 ar  
    29    15    44 1   
    30    16    45 1   
    31    17    46 1   
    32    17    47 1   
    33    18    19 ar  
    34    18    25 ar  
    35    19    20 ar  
    36    19    48 1   
    37    20    21 1   
    38    20    22 ar  
    39    21    49 1   
    40    22    23 1   
    41    22    24 ar  
    42    23    50 1   
    43    24    25 ar  
    44    24    51 1   
    45    25    52 1   
    46    26    27 2   
    47    26    28 2   
    48    26    29 1   
    49    29    30 ar  
    50    29    36 ar  
    51    30    31 ar  
    52    30    53 1   
    53    31    32 1   
    54    31    33 ar  
    55    32    54 1   
    56    33    34 1   
    57    33    35 ar  
    58    34    55 1   
    59    35    36 ar  
    60    35    56 1   
    61    36    57 1   
    62    40    58 1   
@<TRIPOS>SUBSTRUCTURE
     1 OAT         1 TEMP              0 ****  ****    0 ROOT
