@<TRIPOS>MOLECULE
OAT
   59    62     1     0     0
SMALL
No Charge or Current Charge


@<TRIPOS>ATOM
      1 C2          22.7830   -21.0570    17.1170 ca         1 OAT       0.000000
      2 C1          22.4920   -20.3690    18.3080 ca         1 OAT      -0.148000
      3 N           30.0730   -22.6680    13.7820 nh         1 OAT      -0.807300
      4 C           22.3890   -18.9710    18.3030 ca         1 OAT       0.180100
      5 O           22.1070   -18.3000    19.4550 oh         1 OAT      -0.522100
      6 O9          22.8340   -22.5970    14.5210 o          1 OAT      -0.528500
      7 O8          22.9770   -20.3740    13.2590 o          1 OAT      -0.528500
      8 C5          22.9690   -20.3400    15.9150 ca         1 OAT      -0.274500
      9 C4          22.8700   -18.9300    15.9150 ca         1 OAT      -0.069000
     10 C3          22.5780   -18.2450    17.1090 ca         1 OAT       0.026100
     11 C6          25.1630   -21.3250    14.4310 ca         1 OAT      -0.259500
     12 C24         25.8020   -22.4170    15.0520 ca         1 OAT      -0.020000
     13 C23         27.2050   -22.4810    15.0930 ca         1 OAT      -0.115500
     14 C9          27.9850   -21.4580    14.5180 ca         1 OAT      -0.058300
     15 C8          27.3430   -20.3650    13.9040 ca         1 OAT      -0.115500
     16 C7          25.9390   -20.2960    13.8600 ca         1 OAT      -0.020000
     17 C10         29.5100   -21.5450    14.5560 c3         1 OAT       0.276100
     18 C17         29.4060   -23.2080    12.6700 ca         1 OAT       0.263000
     19 C22         29.0170   -22.3750    11.6020 ca         1 OAT      -0.162000
     20 C21         28.3420   -22.9120    10.4930 ca         1 OAT       0.048100
     21 O7          27.9700   -22.1000     9.4530 oh         1 OAT      -0.555100
     22 C20         28.0480   -24.2900    10.4500 ca         1 OAT       0.136100
     23 O6          27.3920   -24.8030     9.3700 oh         1 OAT      -0.529100
     24 C19         28.4260   -25.1250    11.5120 ca         1 OAT      -0.119000
     25 C18         29.1020   -24.5820    12.6190 ca         1 OAT      -0.076000
     26 S1          31.7520   -22.9290    13.8680 sy         1 OAT       1.196600
     27 O4          31.9690   -24.3800    13.8680 o          1 OAT      -0.531000
     28 O5          32.2720   -22.0720    14.9400 o          1 OAT      -0.531000
     29 C11         32.2450   -22.2440    12.2720 ca         1 OAT      -0.303500
     30 C16         32.3830   -23.0840    11.1440 ca         1 OAT      -0.070000
     31 C15         32.7420   -22.5350     9.8990 ca         1 OAT       0.025100
     32 O3          32.8810   -23.3420     8.7950 oh         1 OAT      -0.557100
     33 C14         32.9600   -21.1470     9.7840 ca         1 OAT       0.177100
     34 O2          33.3070   -20.6240     8.5750 oh         1 OAT      -0.524100
     35 C13         32.8210   -20.3110    10.9010 ca         1 OAT      -0.157000
     36 C12         32.4630   -20.8560    12.1470 ca         1 OAT      -0.005000
     37 H2          22.8640   -22.1430    17.1350 ha         1 OAT       0.141000
     38 H1          22.3480   -20.9210    19.2330 ha         1 OAT       0.139000
     39 H           22.0880   -17.3480    19.2070 ho         1 OAT       0.491000
     40 H3          22.6310   -16.5290    16.2120 ho         1 OAT       0.482000
     41 H4          23.0210   -18.3720    14.9920 ha         1 OAT       0.134000
     42 H20         25.2190   -23.2190    15.5040 ha         1 OAT       0.136500
     43 H19         27.6910   -23.3310    15.5660 ha         1 OAT       0.124500
     44 H6          27.9300   -19.5680    13.4550 ha         1 OAT       0.124500
     45 H5          25.4630   -19.4410    13.3830 ha         1 OAT       0.136500
     46 H7          29.9320   -20.5990    14.1910 h1         1 OAT       0.069200
     47 H8          29.8030   -21.6410    15.6100 h1         1 OAT       0.069200
     48 H18         29.2530   -21.3160    11.6400 ha         1 OAT       0.118000
     49 H17         28.2580   -21.1810     9.6480 ho         1 OAT       0.478000
     50 H16         27.2330   -24.0410     8.7680 ho         1 OAT       0.486000
     51 H15         28.1940   -26.1870    11.4790 ha         1 OAT       0.138000
     52 H14         29.3870   -25.2260    13.4460 ha         1 OAT       0.130000
     53 H13         32.2050   -24.1540    11.2350 ha         1 OAT       0.133000
     54 H12         32.6970   -24.2740     9.0490 ho         1 OAT       0.482000
     55 H11         33.3420   -21.3910     7.9590 ho         1 OAT       0.493000
     56 H10         32.9890   -19.2420    10.8030 ha         1 OAT       0.138000
     57 H9          32.3510   -20.1970    13.0070 ha         1 OAT       0.146000
     58 O1          22.4770   -16.8750    17.1200 oh         1 OAT      -0.558100
     59 S           23.3600   -21.2300    14.3910 sy         1 OAT       1.029000
@<TRIPOS>BOND
     1     1     2 ar  
     2     1     8 ar  
     3     1    37 1   
     4     2     4 ar  
     5     2    38 1   
     6     3    17 1   
     7     3    18 1   
     8     3    26 1   
     9     4     5 1   
    10     4    10 ar  
    11     5    39 1   
    12     6    59 2   
    13     7    59 2   
    14     8     9 ar  
    15     8    59 1   
    16     9    10 ar  
    17     9    41 1   
    18    10    58 1   
    19    11    12 ar  
    20    11    16 ar  
    21    11    59 1   
    22    12    13 ar  
    23    12    42 1   
    24    13    14 ar  
    25    13    43 1   
    26    14    15 ar  
    27    14    17 1   
    28    15    16 ar  
    29    15    44 1   
    30    16    45 1   
    31    17    46 1   
    32    17    47 1   
    33    18    19 ar  
    34    18    25 ar  
    35    19    20 ar  
    36    19    48 1   
    37    20    21 1   
    38    20    22 ar  
    39    21    49 1   
    40    22    23 1   
    41    22    24 ar  
    42    23    50 1   
    43    24    25 ar  
    44    24    51 1   
    45    25    52 1   
    46    26    27 2   
    47    26    28 2   
    48    26    29 1   
    49    29    30 ar  
    50    29    36 ar  
    51    30    31 ar  
    52    30    53 1   
    53    31    32 1   
    54    31    33 ar  
    55    32    54 1   
    56    33    34 1   
    57    33    35 ar  
    58    34    55 1   
    59    35    36 ar  
    60    35    56 1   
    61    36    57 1   
    62    40    58 1   
@<TRIPOS>SUBSTRUCTURE
     1 OAT         1 TEMP              0 ****  ****    0 ROOT
