@<TRIPOS>MOLECULE
OAU
   47    49     1     0     0
SMALL
No Charge or Current Charge


@<TRIPOS>ATOM
      1 N1          -6.3570    29.5020   -29.0770 n1         1 OAU      -0.906500
      2 C4          -4.0090    27.5580   -29.2420 cc         1 OAU      -0.146400
      3 C5          -4.6290    26.3760   -28.8320 cd         1 OAU      -0.132100
      4 C6          -3.7080    25.9580   -30.8240 ca         1 OAU      -0.043200
      5 C7          -3.2730    25.3740   -32.0220 ca         1 OAU      -0.125000
      6 C8          -2.5360    26.1720   -32.9220 ca         1 OAU      -0.093000
      7 C10         -2.7030    28.0840   -31.3960 ca         1 OAU      -0.069000
      8 C1          -7.4580    29.1180   -29.0190 c1         1 OAU       0.482000
      9 C2          -4.9590    29.9180   -29.1710 c6         1 OAU       0.298800
     10 C3          -4.0030    28.8840   -28.4920 c6         1 OAU       0.014500
     11 C9          -2.2520    27.5230   -32.6100 ca         1 OAU      -0.138000
     12 N2          -4.4380    25.3690   -29.8100 na         1 OAU      -0.232700
     13 C11         -3.4340    27.2620   -30.5250 ca         1 OAU      -0.094800
     14 C12         -4.3130    28.7690   -26.9520 c6         1 OAU      -0.020500
     15 C13         -3.1660    28.1210   -26.1590 c2         1 OAU      -0.114400
     16 C14         -1.9050    28.5850   -26.1880 c2         1 OAU      -0.314000
     17 C15         -3.5660    26.9340   -25.3000 c3         1 OAU      -0.056900
     18 C16         -4.7250    30.1460   -26.3340 c6         1 OAU      -0.069400
     19 C17         -4.1600    31.3440   -27.1360 c6         1 OAU      -0.068400
     20 C18         -4.6750    31.3880   -28.6240 c6         1 OAU      -0.020800
     21 C19         -5.9420    32.3050   -28.7040 c3         1 OAU      -0.082100
     22 C20         -3.6020    32.0650   -29.4960 c2         1 OAU      -0.222200
     23 C21         -3.7120    32.2690   -30.8210 c2         1 OAU      -0.307000
     24 H3          -5.2000    26.1750   -27.9300 h4         1 OAU       0.216000
     25 H5          -3.4960    24.3350   -32.2520 ha         1 OAU       0.113000
     26 H6          -2.1850    25.7470   -33.8600 ha         1 OAU       0.111000
     27 H8          -2.4890    29.1200   -31.1470 ha         1 OAU       0.110000
     28 H1          -4.7340    29.9110   -30.2480 h1         1 OAU       0.075700
     29 H2          -2.9930    29.2950   -28.6050 hc         1 OAU       0.063700
     30 H7          -1.6830    28.1330   -33.3090 ha         1 OAU       0.110000
     31 H4          -4.7790    24.4130   -29.7800 hn         1 OAU       0.351000
     32 H9          -5.2000    28.1320   -26.8400 hc         1 OAU       0.053700
     33 H10         -1.1110    28.1170   -25.6060 ha         1 OAU       0.163500
     34 H11         -1.6130    29.4480   -26.7840 ha         1 OAU       0.163500
     35 H12         -2.7200    26.5520   -24.7160 hc         1 OAU       0.039033
     36 H13         -4.3560    27.2100   -24.5910 hc         1 OAU       0.039033
     37 H14         -3.9390    26.1060   -25.9130 hc         1 OAU       0.039033
     38 H16         -4.3980    30.2070   -25.2870 hc         1 OAU       0.048200
     39 H15         -5.8210    30.2240   -26.3060 hc         1 OAU       0.048200
     40 H18         -3.0640    31.2760   -27.1080 hc         1 OAU       0.047200
     41 H17         -4.4000    32.2840   -26.6190 hc         1 OAU       0.047200
     42 H19         -6.7220    31.9820   -28.0040 hc         1 OAU       0.041700
     43 H20         -5.6960    33.3440   -28.4520 hc         1 OAU       0.041700
     44 H21         -6.3790    32.3080   -29.7090 hc         1 OAU       0.041700
     45 H22         -2.6990    32.4070   -28.9850 ha         1 OAU       0.165000
     46 H24         -2.9200    32.7610   -31.3870 ha         1 OAU       0.165000
     47 H23         -4.5920    31.9620   -31.3880 ha         1 OAU       0.165000
@<TRIPOS>BOND
     1     1     8 3   
     2     1     9 1   
     3     2     3 2   
     4     2    10 1   
     5     2    13 1   
     6     3    12 1   
     7     3    24 1   
     8     4     5 ar  
     9     4    12 1   
    10     4    13 ar  
    11     5     6 ar  
    12     5    25 1   
    13     6    11 ar  
    14     6    26 1   
    15     7    11 ar  
    16     7    13 ar  
    17     7    27 1   
    18     9    10 1   
    19     9    20 1   
    20     9    28 1   
    21    10    14 1   
    22    10    29 1   
    23    11    30 1   
    24    12    31 1   
    25    14    15 1   
    26    14    18 1   
    27    14    32 1   
    28    15    16 2   
    29    15    17 1   
    30    16    33 1   
    31    16    34 1   
    32    17    35 1   
    33    17    36 1   
    34    17    37 1   
    35    18    19 1   
    36    18    38 1   
    37    18    39 1   
    38    19    20 1   
    39    19    40 1   
    40    19    41 1   
    41    20    21 1   
    42    20    22 1   
    43    21    42 1   
    44    21    43 1   
    45    21    44 1   
    46    22    23 2   
    47    22    45 1   
    48    23    46 1   
    49    23    47 1   
@<TRIPOS>SUBSTRUCTURE
     1 OAU         1 TEMP              0 ****  ****    0 ROOT
