@<TRIPOS>MOLECULE
OAU
   47    49     1     0     0
SMALL
abcg2


@<TRIPOS>ATOM
      1 N1          -6.3500    29.4010   -29.0340 n1         1 OAU      -0.906500
      2 C4          -4.0320    27.5010   -29.2530 cc         1 OAU      -0.146400
      3 C5          -4.6210    26.3210   -28.8740 cd         1 OAU      -0.132100
      4 C6          -3.6530    25.8900   -30.8540 ca         1 OAU      -0.043200
      5 C7          -3.1730    25.3120   -32.0290 ca         1 OAU      -0.125000
      6 C8          -2.4320    26.1160   -32.8830 ca         1 OAU      -0.093000
      7 C10         -2.6490    28.0360   -31.4050 ca         1 OAU      -0.069000
      8 C1          -7.4310    29.0050   -28.8810 c1         1 OAU       0.482000
      9 C2          -4.9980    29.8310   -29.2210 c6         1 OAU       0.298800
     10 C3          -4.0420    28.8200   -28.5470 c6         1 OAU       0.014500
     11 C9          -2.1720    27.4640   -32.5740 ca         1 OAU      -0.138000
     12 N2          -4.3960    25.3550   -29.8300 na         1 OAU      -0.232700
     13 C11         -3.4030    27.2490   -30.5230 ca         1 OAU      -0.094800
     14 C12         -4.3340    28.7150   -27.0400 c6         1 OAU      -0.020500
     15 C13         -3.1790    28.1540   -26.2350 c2         1 OAU      -0.114400
     16 C14         -1.8940    28.3130   -26.5490 c2         1 OAU      -0.314000
     17 C15         -3.5950    27.4190   -24.9910 c3         1 OAU      -0.056900
     18 C16         -4.7830    30.0870   -26.4600 c6         1 OAU      -0.069400
     19 C17         -4.1880    31.2410   -27.2550 c6         1 OAU      -0.068400
     20 C18         -4.7370    31.2970   -28.7080 c6         1 OAU      -0.020800
     21 C19         -6.0140    32.1340   -28.7530 c3         1 OAU      -0.082100
     22 C20         -3.6550    31.8600   -29.6020 c2         1 OAU      -0.222200
     23 C21         -3.7060    32.9700   -30.3280 c2         1 OAU      -0.307000
     24 H3          -5.1840    26.0810   -27.9890 h4         1 OAU       0.216000
     25 H5          -3.3710    24.2740   -32.2640 ha         1 OAU       0.113000
     26 H6          -2.0460    25.6980   -33.8040 ha         1 OAU       0.111000
     27 H8          -2.4420    29.0750   -31.1790 ha         1 OAU       0.110000
     28 H1          -4.8350    29.8130   -30.2990 h1         1 OAU       0.075700
     29 H2          -3.0570    29.2680   -28.6830 hc         1 OAU       0.063700
     30 H7          -1.5890    28.0610   -33.2640 ha         1 OAU       0.110000
     31 H4          -4.7150    24.4020   -29.7750 hn         1 OAU       0.351000
     32 H9          -5.1730    28.0280   -26.9110 hc         1 OAU       0.053700
     33 H10         -1.1150    27.9210   -25.9060 ha         1 OAU       0.163500
     34 H11         -1.5670    28.8260   -27.4440 ha         1 OAU       0.163500
     35 H12         -2.7360    27.1160   -24.3920 hc         1 OAU       0.039033
     36 H13         -4.2510    28.0360   -24.3710 hc         1 OAU       0.039033
     37 H14         -4.1680    26.5250   -25.2580 hc         1 OAU       0.039033
     38 H16         -4.4820    30.1600   -25.4150 hc         1 OAU       0.048200
     39 H15         -5.8720    30.1530   -26.4740 hc         1 OAU       0.048200
     40 H18         -3.1000    31.1370   -27.2720 hc         1 OAU       0.047200
     41 H17         -4.3990    32.1960   -26.7700 hc         1 OAU       0.047200
     42 H19         -6.7460    31.7610   -28.0380 hc         1 OAU       0.041700
     43 H20         -5.7870    33.1680   -28.4910 hc         1 OAU       0.041700
     44 H21         -6.4700    32.1220   -29.7440 hc         1 OAU       0.041700
     45 H22         -2.7400    31.2720   -29.6250 ha         1 OAU       0.165000
     46 H24         -2.8570    33.2770   -30.9260 ha         1 OAU       0.165000
     47 H23         -4.5780    33.6110   -30.3560 ha         1 OAU       0.165000
@<TRIPOS>BOND
     1     1     8 3   
     2     1     9 1   
     3     2     3 2   
     4     2    10 1   
     5     2    13 1   
     6     3    12 1   
     7     3    24 1   
     8     4     5 ar  
     9     4    12 1   
    10     4    13 ar  
    11     5     6 ar  
    12     5    25 1   
    13     6    11 ar  
    14     6    26 1   
    15     7    11 ar  
    16     7    13 ar  
    17     7    27 1   
    18     9    10 1   
    19     9    20 1   
    20     9    28 1   
    21    10    14 1   
    22    10    29 1   
    23    11    30 1   
    24    12    31 1   
    25    14    15 1   
    26    14    18 1   
    27    14    32 1   
    28    15    16 2   
    29    15    17 1   
    30    16    33 1   
    31    16    34 1   
    32    17    35 1   
    33    17    36 1   
    34    17    37 1   
    35    18    19 1   
    36    18    38 1   
    37    18    39 1   
    38    19    20 1   
    39    19    40 1   
    40    19    41 1   
    41    20    21 1   
    42    20    22 1   
    43    21    42 1   
    44    21    43 1   
    45    21    44 1   
    46    22    23 2   
    47    22    45 1   
    48    23    46 1   
    49    23    47 1   
@<TRIPOS>SUBSTRUCTURE
     1 OAU         1 TEMP              0 ****  ****    0 ROOT
