@<TRIPOS>MOLECULE
OAV
   53    55     1     0     0
SMALL
No Charge or Current Charge


@<TRIPOS>ATOM
      1 C25         39.5030     6.8200    11.4320 ca         1 OAV      -0.000300
      2 C28         40.0510     9.2150    11.8430 cg         1 OAV       0.334000
      3 C14         38.1850     2.8490    17.5120 ca         1 OAV      -0.065300
      4 C18         39.7110     2.5000    15.6370 ca         1 OAV      -0.114000
      5 C19         39.2380     2.1320    16.9080 ca         1 OAV      -0.083500
      6 C21         39.7140     5.2180    13.2660 ca         1 OAV       0.168100
      7 C22         40.1520     6.2440    14.1200 ca         1 OAV      -0.196000
      8 C23         40.2570     7.5600    13.6390 ca         1 OAV      -0.030000
      9 C01         34.2480     3.5350    18.7750 c3         1 OAV      -0.115100
     10 C02         35.0080     3.2950    20.0910 c3         1 OAV       0.103000
     11 C04         36.0980     5.3950    20.9800 c3         1 OAV       0.077000
     12 C05         35.9110     5.2250    22.5060 c3         1 OAV       0.064600
     13 C07         37.1640     3.1440    23.2940 cc         1 OAV      -0.181000
     14 C08         38.3340     3.0050    23.9830 cd         1 OAV      -0.234000
     15 C09         38.8290     4.2980    24.2440 cd         1 OAV       0.246900
     16 C11         37.5230     3.6530    19.8320 c          1 OAV       0.606100
     17 C15         37.6050     3.9330    16.8200 ca         1 OAV      -0.083500
     18 C16         38.0790     4.3010    15.5490 ca         1 OAV      -0.114000
     19 C17         39.1420     3.5890    14.9600 ca         1 OAV       0.092100
     20 C24         39.9320     7.8560    12.2990 ca         1 OAV      -0.066000
     21 C26         39.4030     5.5040    11.9290 ca         1 OAV      -0.155000
     22 C27         39.1480     7.0930     9.9710 c3         1 OAV      -0.056800
     23 N03         36.2350     4.1200    20.2200 n          1 OAV      -0.426800
     24 N06         37.0220     4.5240    23.1710 na         1 OAV       0.132800
     25 N10         38.0430     5.2430    23.7640 nc         1 OAV      -0.511800
     26 N29         40.1510    10.3210    11.4820 n1         1 OAV      -0.468000
     27 O12         38.5310     4.2410    20.2020 o          1 OAV      -0.569100
     28 O20         39.6150     3.9190    13.7100 os         1 OAV      -0.252200
     29 H1          36.7340     1.8920    18.7570 hc         1 OAV       0.064700
     30 H2          38.3900     1.7550    19.3570 hc         1 OAV       0.064700
     31 H3          40.5230     1.9420    15.1760 ha         1 OAV       0.130000
     32 H4          39.6910     1.2870    17.4220 ha         1 OAV       0.119500
     33 H5          40.4150     6.0250    15.1520 ha         1 OAV       0.140000
     34 H6          40.5940     8.3500    14.3090 ha         1 OAV       0.126000
     35 H7          33.3170     2.9560    18.7650 hc         1 OAV       0.043700
     36 H8          33.9950     4.5960    18.6620 hc         1 OAV       0.043700
     37 H9          34.8480     3.2260    17.9120 hc         1 OAV       0.043700
     38 H10         34.3270     3.5410    20.9160 h1         1 OAV       0.044700
     39 H11         35.2470     2.2310    20.2080 h1         1 OAV       0.044700
     40 H12         36.9720     6.0350    20.8010 h1         1 OAV       0.074200
     41 H13         35.2300     5.9390    20.5860 h1         1 OAV       0.074200
     42 H14         35.8010     6.2170    22.9620 h1         1 OAV       0.065200
     43 H15         34.9860     4.6720    22.7060 h1         1 OAV       0.065200
     44 H16         36.4580     2.4250    22.8970 h4         1 OAV       0.144000
     45 H17         38.8010     2.0720    24.2800 ha         1 OAV       0.141000
     46 H18         39.7340     4.5730    24.7710 h4         1 OAV       0.037100
     47 H19         36.7870     4.4960    17.2630 ha         1 OAV       0.119500
     48 H20         37.6150     5.1320    15.0230 ha         1 OAV       0.130000
     49 H21         39.0780     4.6970    11.2780 ha         1 OAV       0.132000
     50 H22         38.3180     7.8050     9.8940 hc         1 OAV       0.052367
     51 H23         40.0040     7.5090     9.4270 hc         1 OAV       0.052367
     52 H24         38.8430     6.1790     9.4480 hc         1 OAV       0.052367
     53 C13         37.6700     2.4370    18.8910 c3         1 OAV      -0.110100
@<TRIPOS>BOND
     1     1    20 ar  
     2     1    21 ar  
     3     1    22 1   
     4     2    20 1   
     5     2    26 3   
     6     3     5 ar  
     7     3    17 ar  
     8     3    53 1   
     9     4     5 ar  
    10     4    19 ar  
    11     4    31 1   
    12     5    32 1   
    13     6     7 ar  
    14     6    21 ar  
    15     6    28 1   
    16     7     8 ar  
    17     7    33 1   
    18     8    20 ar  
    19     8    34 1   
    20     9    10 1   
    21     9    35 1   
    22     9    36 1   
    23     9    37 1   
    24    10    23 1   
    25    10    38 1   
    26    10    39 1   
    27    11    12 1   
    28    11    23 1   
    29    11    40 1   
    30    11    41 1   
    31    12    24 1   
    32    12    42 1   
    33    12    43 1   
    34    13    14 2   
    35    13    24 1   
    36    13    44 1   
    37    14    15 1   
    38    14    45 1   
    39    15    25 2   
    40    15    46 1   
    41    16    23 1   
    42    16    27 2   
    43    16    53 1   
    44    17    18 ar  
    45    17    47 1   
    46    18    19 ar  
    47    18    48 1   
    48    19    28 1   
    49    21    49 1   
    50    22    50 1   
    51    22    51 1   
    52    22    52 1   
    53    24    25 1   
    54    29    53 1   
    55    30    53 1   
@<TRIPOS>SUBSTRUCTURE
     1 OAV         1 TEMP              0 ****  ****    0 ROOT
