@<TRIPOS>MOLECULE
OAV
   53    55     1     0     0
SMALL
bcc


@<TRIPOS>ATOM
      1 C25         40.7650     6.4710    11.8430 ca         1 OAV      -0.000300
      2 C28         40.9560     8.8940    12.1420 cg         1 OAV       0.244800
      3 C14         36.9630     3.3430    17.3410 ca         1 OAV      -0.065300
      4 C18         39.0920     3.5030    16.2040 ca         1 OAV      -0.132000
      5 C19         38.3550     3.2840    17.3560 ca         1 OAV      -0.101500
      6 C21         39.5610     5.1870    13.5020 ca         1 OAV       0.168100
      7 C22         39.2880     6.3350    14.2400 ca         1 OAV      -0.214000
      8 C23         39.7560     7.5500    13.7760 ca         1 OAV      -0.048000
      9 C01         33.2180     3.3240    20.5990 c3         1 OAV      -0.115100
     10 C02         34.6510     3.0210    21.0120 c3         1 OAV       0.103000
     11 C04         35.7250     5.1040    21.7750 c3         1 OAV       0.077000
     12 C05         36.7340     4.6450    22.8270 c3         1 OAV       0.035300
     13 C07         38.4370     3.1460    21.7890 cc         1 OAV      -0.148300
     14 C08         39.6570     3.3530    21.1900 cd         1 OAV      -0.317300
     15 C09         39.8790     4.7320    21.3380 cd         1 OAV       0.312200
     16 C11         36.2600     4.2500    19.5720 c          1 OAV       0.673100
     17 C15         36.3230     3.6290    16.1410 ca         1 OAV      -0.101500
     18 C16         37.0470     3.8540    14.9770 ca         1 OAV      -0.132000
     19 C17         38.4280     3.7840    15.0200 ca         1 OAV       0.092100
     20 C24         40.4870     7.6270    12.5930 ca         1 OAV      -0.066000
     21 C26         40.2920     5.2620    12.3160 ca         1 OAV      -0.173000
     22 C27         41.5490     6.5460    10.5700 c3         1 OAV      -0.056800
     23 N03         35.5650     4.1180    20.7280 n          1 OAV      -0.493800
     24 N06         38.0200     4.3420    22.2480 na         1 OAV       0.111400
     25 N10         38.8820     5.3160    21.9740 nc         1 OAV      -0.511800
     26 N29         41.3400     9.9160    11.7710 n1         1 OAV      -0.378800
     27 O12         36.9360     5.2340    19.3230 o          1 OAV      -0.569100
     28 O20         39.1540     3.9510    13.8610 os         1 OAV      -0.252200
     29 H1          35.1400     2.8630    18.3490 hc         1 OAV       0.064700
     30 H2          36.5670     2.1910    19.0900 hc         1 OAV       0.064700
     31 H3          40.1730     3.4490    16.2240 ha         1 OAV       0.148000
     32 H4          38.8710     3.0620    18.2820 ha         1 OAV       0.137500
     33 H5          38.7220     6.2990    15.1600 ha         1 OAV       0.158000
     34 H6          39.5510     8.4490    14.3410 ha         1 OAV       0.144000
     35 H7          32.5650     2.4940    20.8700 hc         1 OAV       0.043700
     36 H8          32.8440     4.2180    21.0990 hc         1 OAV       0.043700
     37 H9          33.1360     3.4800    19.5230 hc         1 OAV       0.043700
     38 H10         34.6890     2.8260    22.0850 h1         1 OAV       0.044700
     39 H11         34.9970     2.1030    20.5400 h1         1 OAV       0.044700
     40 H12         36.0380     6.0540    21.3480 h1         1 OAV       0.074200
     41 H13         34.7650     5.2710    22.2680 h1         1 OAV       0.074200
     42 H14         36.8620     5.4210    23.5800 h1         1 OAV       0.065200
     43 H15         36.3760     3.7500    23.3380 h1         1 OAV       0.065200
     44 H16         37.8550     2.2490    21.9280 h4         1 OAV       0.162000
     45 H17         40.2950     2.6190    20.7270 ha         1 OAV       0.159000
     46 H18         40.7310     5.3100    21.0130 h4         1 OAV       0.037100
     47 H19         35.2420     3.6750    16.1050 ha         1 OAV       0.137500
     48 H20         36.5380     4.0720    14.0470 ha         1 OAV       0.148000
     49 H21         40.4900     4.3530    11.7620 ha         1 OAV       0.150000
     50 H22         41.0540     7.1860     9.8370 hc         1 OAV       0.052367
     51 H23         42.5430     6.9610    10.7420 hc         1 OAV       0.052367
     52 H24         41.6700     5.5600    10.1250 hc         1 OAV       0.052367
     53 C13         36.1810     3.0850    18.5920 c3         1 OAV      -0.110100
@<TRIPOS>BOND
     1     1    20 ar  
     2     1    21 ar  
     3     1    22 1   
     4     2    20 1   
     5     2    26 3   
     6     3     5 ar  
     7     3    17 ar  
     8     3    53 1   
     9     4     5 ar  
    10     4    19 ar  
    11     4    31 1   
    12     5    32 1   
    13     6     7 ar  
    14     6    21 ar  
    15     6    28 1   
    16     7     8 ar  
    17     7    33 1   
    18     8    20 ar  
    19     8    34 1   
    20     9    10 1   
    21     9    35 1   
    22     9    36 1   
    23     9    37 1   
    24    10    23 1   
    25    10    38 1   
    26    10    39 1   
    27    11    12 1   
    28    11    23 1   
    29    11    40 1   
    30    11    41 1   
    31    12    24 1   
    32    12    42 1   
    33    12    43 1   
    34    13    14 2   
    35    13    24 1   
    36    13    44 1   
    37    14    15 1   
    38    14    45 1   
    39    15    25 2   
    40    15    46 1   
    41    16    23 1   
    42    16    27 2   
    43    16    53 1   
    44    17    18 ar  
    45    17    47 1   
    46    18    19 ar  
    47    18    48 1   
    48    19    28 1   
    49    21    49 1   
    50    22    50 1   
    51    22    51 1   
    52    22    52 1   
    53    24    25 1   
    54    29    53 1   
    55    30    53 1   
@<TRIPOS>SUBSTRUCTURE
     1 OAV         1 TEMP              0 ****  ****    0 ROOT
