@<TRIPOS>MOLECULE
OAW
   36    38     1     0     0
SMALL
No Charge or Current Charge


@<TRIPOS>ATOM
      1 N1           3.0790    -1.9920    -0.0840 nb         1 OAW      -0.273000
      2 C2           3.4800    -0.7200    -0.0860 ca         1 OAW       0.432900
      3 N3           2.7200     0.3740    -0.0700 nb         1 OAW      -0.313000
      4 C4           1.3830     0.1890    -0.0530 ca         1 OAW       0.277900
      5 C5           0.8230    -1.1120    -0.0510 ca         1 OAW      -0.097600
      6 C6           1.7470    -2.1910    -0.0670 ca         1 OAW       0.240300
      7 N7           4.8150    -0.5130    -0.1020 nv         1 OAW      -1.062900
      8 C9           1.2940    -3.6460    -0.0660 c3         1 OAW      -0.149400
      9 N10          0.5200     1.3350    -0.0370 n          1 OAW      -0.360300
     10 C11         -0.8860     1.1430    -0.0180 c          1 OAW       0.450700
     11 C12         -1.3610    -0.3080    -0.0170 cc         1 OAW       0.452900
     12 N13         -0.5590    -1.3880    -0.0330 nd         1 OAW      -0.517100
     13 O14         -1.6410     2.1100    -0.0030 o          1 OAW      -0.525000
     14 C15         -2.7890    -0.5970     0.0020 cc         1 OAW      -0.253900
     15 C16          0.7740     3.5230    -1.3310 c3         1 OAW      -0.100600
     16 C17          0.8130     3.5130     1.2660 c3         1 OAW      -0.100600
     17 C18         -3.3220    -1.8600     0.0040 cd         1 OAW      -0.127000
     18 N19         -4.7070    -1.6650     0.0240 na         1 OAW      -0.003200
     19 N20         -5.0560    -0.3150     0.0340 nd         1 OAW      -0.532800
     20 C21         -3.8830     0.2910     0.0200 cc         1 OAW       0.288900
     21 HN7          5.4230    -1.2960     0.1250 hn         1 OAW       0.506500
     22 HN7A         5.1610     0.4140     0.1320 hn         1 OAW       0.506500
     23 H8           2.1780     2.6620    -0.0570 h1         1 OAW       0.083700
     24 H9           0.7000    -3.8670     0.8280 hc         1 OAW       0.062367
     25 H9A          0.6740    -3.8610    -0.9440 hc         1 OAW       0.062367
     26 H9B          2.1420    -4.3410    -0.0800 hc         1 OAW       0.062367
     27 H16          1.3520     4.4540    -1.3560 hc         1 OAW       0.047533
     28 H16A         1.0440     2.9330    -2.2150 hc         1 OAW       0.047533
     29 H16B        -0.2870     3.7860    -1.4020 hc         1 OAW       0.047533
     30 H17         -0.2450     3.7740     1.3710 hc         1 OAW       0.047533
     31 H17A         1.1100     2.9170     2.1370 hc         1 OAW       0.047533
     32 H17B         1.3910     4.4440     1.2800 hc         1 OAW       0.047533
     33 H18         -2.8570    -2.8410    -0.0060 h4         1 OAW       0.165000
     34 H21         -3.8860     1.3710     0.0240 h4         1 OAW       0.059100
     35 HN19        -5.4160    -2.3990     0.0310 hn         1 OAW       0.371000
     36 C8           1.0850     2.7320    -0.0400 c3         1 OAW       0.105700
@<TRIPOS>BOND
     1     1     2 ar  
     2     1     6 ar  
     3     2     3 ar  
     4     2     7 1   
     5     3     4 ar  
     6     4     5 ar  
     7     4     9 1   
     8     5     6 ar  
     9     5    12 1   
    10     6     8 1   
    11     7    21 1   
    12     7    22 1   
    13     8    24 1   
    14     8    25 1   
    15     8    26 1   
    16     9    10 1   
    17     9    36 1   
    18    10    11 1   
    19    10    13 2   
    20    11    12 2   
    21    11    14 1   
    22    14    17 2   
    23    14    20 1   
    24    15    27 1   
    25    15    28 1   
    26    15    29 1   
    27    15    36 1   
    28    16    30 1   
    29    16    31 1   
    30    16    32 1   
    31    16    36 1   
    32    17    18 1   
    33    17    33 1   
    34    18    19 1   
    35    18    35 1   
    36    19    20 2   
    37    20    34 1   
    38    23    36 1   
@<TRIPOS>SUBSTRUCTURE
     1 OAW         1 TEMP              0 ****  ****    0 ROOT
