@<TRIPOS>MOLECULE
OAW
   36    38     1     0     0
SMALL
abcg2


@<TRIPOS>ATOM
      1 N1           3.0360    -1.9450    -0.0490 nb         1 OAW      -0.273000
      2 C2           3.4650    -0.6690    -0.0510 ca         1 OAW       0.432900
      3 N3           2.6940     0.4150    -0.0470 nb         1 OAW      -0.313000
      4 C4           1.3880     0.2150    -0.0390 ca         1 OAW       0.277900
      5 C5           0.8290    -1.0700    -0.0340 ca         1 OAW      -0.097600
      6 C6           1.7360    -2.1470    -0.0390 ca         1 OAW       0.240300
      7 N7           4.7900    -0.4840    -0.0740 nv         1 OAW      -1.062900
      8 C9           1.2400    -3.5540    -0.0210 c3         1 OAW      -0.149400
      9 N10          0.5380     1.2960    -0.0320 n          1 OAW      -0.360300
     10 C11         -0.8300     1.1210    -0.0140 c          1 OAW       0.450700
     11 C12         -1.3130    -0.2770    -0.0150 cc         1 OAW       0.452900
     12 N13         -0.5080    -1.2840    -0.0230 nd         1 OAW      -0.517100
     13 O14         -1.5950     2.0680    -0.0000 o          1 OAW      -0.525000
     14 C15         -2.7440    -0.5420    -0.0110 cc         1 OAW      -0.253900
     15 C16          0.7350     3.4380    -1.3010 c3         1 OAW      -0.100600
     16 C17          0.7970     3.4230     1.2460 c3         1 OAW      -0.100600
     17 C18         -3.2930    -1.8160    -0.0480 cd         1 OAW      -0.127000
     18 N19         -4.6170    -1.6600    -0.0310 na         1 OAW      -0.003200
     19 N20         -4.9980    -0.3870     0.0150 nd         1 OAW      -0.532800
     20 C21         -3.8770     0.3060     0.0270 cc         1 OAW       0.288900
     21 HN7          5.4070    -1.2700     0.0300 hn         1 OAW       0.506500
     22 HN7A         5.1720     0.4410     0.0230 hn         1 OAW       0.506500
     23 H8           2.1760     2.5060    -0.0680 h1         1 OAW       0.083700
     24 H9           0.7740    -3.7800     0.9400 hc         1 OAW       0.062367
     25 H9A          0.4810    -3.7180    -0.7850 hc         1 OAW       0.062367
     26 H9B          2.0630    -4.2470    -0.1760 hc         1 OAW       0.062367
     27 H16          1.3700     4.3220    -1.3610 hc         1 OAW       0.047533
     28 H16A         0.9190     2.8400    -2.1950 hc         1 OAW       0.047533
     29 H16B        -0.3010     3.7680    -1.3090 hc         1 OAW       0.047533
     30 H17         -0.2440     3.7230     1.3240 hc         1 OAW       0.047533
     31 H17A         1.0590     2.8270     2.1220 hc         1 OAW       0.047533
     32 H17B         1.4110     4.3240     1.2700 hc         1 OAW       0.047533
     33 H18         -2.8290    -2.7870    -0.0860 h4         1 OAW       0.165000
     34 H21         -3.9120     1.3810     0.0630 h4         1 OAW       0.059100
     35 HN19        -5.3100    -2.3910    -0.0520 hn         1 OAW       0.371000
     36 C8           1.1030     2.6670    -0.0400 c3         1 OAW       0.105700
@<TRIPOS>BOND
     1     1     2 ar  
     2     1     6 ar  
     3     2     3 ar  
     4     2     7 1   
     5     3     4 ar  
     6     4     5 ar  
     7     4     9 1   
     8     5     6 ar  
     9     5    12 1   
    10     6     8 1   
    11     7    21 1   
    12     7    22 1   
    13     8    24 1   
    14     8    25 1   
    15     8    26 1   
    16     9    10 1   
    17     9    36 1   
    18    10    11 1   
    19    10    13 2   
    20    11    12 2   
    21    11    14 1   
    22    14    17 2   
    23    14    20 1   
    24    15    27 1   
    25    15    28 1   
    26    15    29 1   
    27    15    36 1   
    28    16    30 1   
    29    16    31 1   
    30    16    32 1   
    31    16    36 1   
    32    17    18 1   
    33    17    33 1   
    34    18    19 1   
    35    18    35 1   
    36    19    20 2   
    37    20    34 1   
    38    23    36 1   
@<TRIPOS>SUBSTRUCTURE
     1 OAW         1 TEMP              0 ****  ****    0 ROOT
