@<TRIPOS>MOLECULE
OAX
   33    34     1     0     0
SMALL
No Charge or Current Charge


@<TRIPOS>ATOM
      1 C4           9.1570    10.7780     1.5170 c          1 OAX       0.597900
      2 O3           8.4880    10.3000     0.6080 o          1 OAX      -0.584100
      3 N2          10.4610    11.2660     1.3370 n          1 OAX      -0.436800
      4 C5          11.1220    11.2590     0.0100 c3         1 OAX       0.123000
      5 C7          11.9730    10.0220    -0.3050 cx         1 OAX      -0.137700
      6 C8          12.7410     9.2540     0.7510 cx         1 OAX      -0.126400
      7 C6          11.5490     8.6190     0.0740 cx         1 OAX      -0.126400
      8 C9          11.1660    11.8790     2.4680 c3         1 OAX       0.265400
      9 N3          10.8780    13.2990     2.6080 ns         1 OAX      -0.526900
     10 C10         11.6780    14.3090     2.1250 c          1 OAX       0.620700
     11 O4          12.7350    14.0650     1.5600 o          1 OAX      -0.591100
     12 C11         11.1860    15.7280     2.3330 ca         1 OAX      -0.154600
     13 C15         11.9720    16.8080     1.8670 ca         1 OAX      -0.062500
     14 C16         11.5460    18.1360     2.0430 ca         1 OAX      -0.113000
     15 C12         10.3300    18.4050     2.6850 ca         1 OAX       0.140000
     16 Cl1          9.7980    20.0670     2.9030 cl         1 OAX      -0.190000
     17 C13          9.5370    17.3470     3.1530 ca         1 OAX      -0.113000
     18 C14          9.9570    16.0160     2.9800 ca         1 OAX      -0.062500
     19 H1           8.7990    10.8740     2.5590 h5         1 OAX       0.001200
     20 H2          11.7660    12.1450    -0.0640 h1         1 OAX       0.063200
     21 H3          10.3590    11.3680    -0.7720 h1         1 OAX       0.063200
     22 H4          12.4630    10.1240    -1.2710 hc         1 OAX       0.080700
     23 H5          13.7290     8.8840     0.4860 hc         1 OAX       0.071200
     24 H6          12.6300     9.5300     1.7950 hc         1 OAX       0.071200
     25 H7          10.6480     8.4860     0.6660 hc         1 OAX       0.071200
     26 H8          11.7370     7.8240    -0.6440 hc         1 OAX       0.071200
     27 H9          10.8650    11.3650     3.3890 h2         1 OAX       0.073200
     28 H10         12.2450    11.7410     2.3230 h2         1 OAX       0.073200
     29 H11         10.0240    13.5690     3.0750 hn         1 OAX       0.314500
     30 H12         12.9200    16.6220     1.3660 ha         1 OAX       0.128000
     31 H13         12.1600    18.9570     1.6800 ha         1 OAX       0.134500
     32 H14          8.5930    17.5590     3.6500 ha         1 OAX       0.134500
     33 H15          9.3140    15.2240     3.3560 ha         1 OAX       0.128000
@<TRIPOS>BOND
     1     1     2 2   
     2     1     3 1   
     3     1    19 1   
     4     3     4 1   
     5     3     8 1   
     6     4     5 1   
     7     4    20 1   
     8     4    21 1   
     9     5     6 1   
    10     5     7 1   
    11     5    22 1   
    12     6     7 1   
    13     6    23 1   
    14     6    24 1   
    15     7    25 1   
    16     7    26 1   
    17     8     9 1   
    18     8    27 1   
    19     8    28 1   
    20     9    10 1   
    21     9    29 1   
    22    10    11 2   
    23    10    12 1   
    24    12    13 ar  
    25    12    18 ar  
    26    13    14 ar  
    27    13    30 1   
    28    14    15 ar  
    29    14    31 1   
    30    15    16 1   
    31    15    17 ar  
    32    17    18 ar  
    33    17    32 1   
    34    18    33 1   
@<TRIPOS>SUBSTRUCTURE
     1 OAX         1 TEMP              0 ****  ****    0 ROOT
