@<TRIPOS>MOLECULE
OAX
   33    34     1     0     0
SMALL
abcg2


@<TRIPOS>ATOM
      1 C4           9.1530    10.5900     1.4780 c          1 OAX       0.597900
      2 O3           8.5290    10.0670     0.5750 o          1 OAX      -0.584100
      3 N2          10.3550    11.1880     1.3580 n          1 OAX      -0.436800
      4 C5          11.0090    11.3220     0.0680 c3         1 OAX       0.123000
      5 C7          12.0230    10.2430    -0.2430 cx         1 OAX      -0.137700
      6 C8          12.7610     9.4780     0.8120 cx         1 OAX      -0.126400
      7 C6          11.7480     8.7850    -0.0500 cx         1 OAX      -0.126400
      8 C9          10.9290    11.8630     2.5000 c3         1 OAX       0.265400
      9 N3          10.6740    13.2800     2.5100 ns         1 OAX      -0.526900
     10 C10         11.6060    14.2160     2.2330 c          1 OAX       0.620700
     11 O4          12.7430    13.9410     1.8790 o          1 OAX      -0.591100
     12 C11         11.1730    15.6390     2.3790 ca         1 OAX      -0.154600
     13 C15         11.8840    16.6120     1.6800 ca         1 OAX      -0.062500
     14 C16         11.5410    17.9500     1.7780 ca         1 OAX      -0.113000
     15 C12         10.4870    18.3180     2.6010 ca         1 OAX       0.140000
     16 CL1         10.0570    19.9870     2.7350 cl         1 OAX      -0.190000
     17 C13          9.7770    17.3710     3.3210 ca         1 OAX      -0.113000
     18 C14         10.1230    16.0350     3.2050 ca         1 OAX      -0.062500
     19 H1           8.7760    10.6140     2.5130 h5         1 OAX       0.001200
     20 H2          11.5090    12.2910     0.0460 h1         1 OAX       0.063200
     21 H3          10.2470    11.3490    -0.7110 h1         1 OAX       0.063200
     22 H4          12.6040    10.4890    -1.1260 hc         1 OAX       0.080700
     23 H5          13.8110     9.2710     0.6450 hc         1 OAX       0.071200
     24 H6          12.5050     9.6320     1.8530 hc         1 OAX       0.071200
     25 H7          10.8150     8.4880     0.4110 hc         1 OAX       0.071200
     26 H8          12.1010     8.1000    -0.8100 hc         1 OAX       0.071200
     27 H9          10.5150    11.4230     3.4060 h2         1 OAX       0.073200
     28 H10         12.0050    11.7100     2.5190 h2         1 OAX       0.073200
     29 H11          9.7320    13.5700     2.7160 hn         1 OAX       0.314500
     30 H12         12.7110    16.3260     1.0460 ha         1 OAX       0.128000
     31 H13         12.0920    18.6950     1.2200 ha         1 OAX       0.134500
     32 H14          8.9640    17.6660     3.9710 ha         1 OAX       0.134500
     33 H15          9.5680    15.3160     3.7940 ha         1 OAX       0.128000
@<TRIPOS>BOND
     1     1     2 2   
     2     1     3 1   
     3     1    19 1   
     4     3     4 1   
     5     3     8 1   
     6     4     5 1   
     7     4    20 1   
     8     4    21 1   
     9     5     6 1   
    10     5     7 1   
    11     5    22 1   
    12     6     7 1   
    13     6    23 1   
    14     6    24 1   
    15     7    25 1   
    16     7    26 1   
    17     8     9 1   
    18     8    27 1   
    19     8    28 1   
    20     9    10 1   
    21     9    29 1   
    22    10    11 2   
    23    10    12 1   
    24    12    13 ar  
    25    12    18 ar  
    26    13    14 ar  
    27    13    30 1   
    28    14    15 ar  
    29    14    31 1   
    30    15    16 1   
    31    15    17 ar  
    32    17    18 ar  
    33    17    32 1   
    34    18    33 1   
@<TRIPOS>SUBSTRUCTURE
     1 OAX         1 TEMP              0 ****  ****    0 ROOT
