@<TRIPOS>MOLECULE
OAY
   54    58     1     0     0
SMALL
No Charge or Current Charge


@<TRIPOS>ATOM
      1 C10         -2.1000    -3.4160    85.6170 c          1 OAY       0.591600
      2 C13         -4.4950    -3.7560    86.1560 c3         1 OAY       0.132000
      3 C15         -2.0010    -0.1050    88.3750 c3         1 OAY       0.085300
      4 C17          3.3600    -3.6550    84.5530 cc         1 OAY      -0.384400
      5 C22          3.2100    -4.4930    85.6420 cd         1 OAY       0.225800
      6 C26          2.4800    -5.2010    88.0610 cx         1 OAY      -0.106900
      7 C28         -4.5650    -4.9010    87.1640 cx         1 OAY      -0.151700
      8 C1           1.4780    -2.0240    85.0900 ca         1 OAY      -0.207600
      9 C2           1.4190    -0.8940    85.9140 ca         1 OAY      -0.014000
     10 C3           0.2590    -0.6070    86.6310 ca         1 OAY      -0.191000
     11 C4          -0.8540    -1.4710    86.5860 ca         1 OAY       0.132600
     12 C5          -0.8480    -2.5630    85.6910 ca         1 OAY      -0.223600
     13 C6           0.3220    -2.8290    84.9070 ca         1 OAY       0.064700
     14 N7          -2.0530    -1.1410    87.3050 n          1 OAY      -0.307000
     15 C8          -3.2640    -1.8260    87.1070 c          1 OAY       0.623000
     16 N9          -3.2430    -2.9550    86.2830 n          1 OAY      -0.374400
     17 C11          0.3400    -3.9120    83.8150 c3         1 OAY      -0.059800
     18 O12         -2.1270    -4.4880    85.0290 o          1 OAY      -0.532000
     19 O14         -4.2960    -1.4580    87.6540 o          1 OAY      -0.562000
     20 C16          2.7880    -2.3050    84.4020 c          1 OAY       0.625900
     21 O18          3.2810    -1.4540    83.6760 o          1 OAY      -0.504100
     22 C19          4.2730    -4.1970    83.5760 c          1 OAY       0.576200
     23 N20          4.6540    -5.4220    84.1070 n          1 OAY      -0.268200
     24 N21          3.9530    -5.6390    85.3480 na         1 OAY      -0.547200
     25 O23          4.6210    -3.7380    82.4980 o          1 OAY      -0.524000
     26 C25          2.5290    -4.1900    86.9330 cx         1 OAY      -0.122500
     27 C27          1.2230    -4.8650    87.2980 cx         1 OAY      -0.106900
     28 C29         -5.0920    -4.6870    88.5650 cx         1 OAY      -0.125900
     29 C30         -5.8950    -5.4940    87.5710 cx         1 OAY      -0.125900
     30 H1          -5.3740    -3.1090    86.2710 h1         1 OAY       0.075200
     31 H2          -4.5650    -4.1690    85.1410 h1         1 OAY       0.075200
     32 H3          -2.8450    -0.1920    89.0700 h1         1 OAY       0.059700
     33 H4          -1.0830    -0.2210    88.9640 h1         1 OAY       0.059700
     34 H5          -2.0170     0.8940    87.9210 h1         1 OAY       0.059700
     35 H7           4.6410    -6.8530    82.5520 h1         1 OAY       0.055033
     36 H8           6.2260    -6.0800    82.8550 h1         1 OAY       0.055033
     37 H9           5.6020    -7.3130    83.9890 h1         1 OAY       0.055033
     38 H10          2.9090    -6.1880    87.9050 hc         1 OAY       0.081450
     39 H11          2.5680    -4.8280    89.0790 hc         1 OAY       0.081450
     40 H12         -3.7380    -5.6000    87.0550 hc         1 OAY       0.088700
     41 H13          2.2850    -0.2400    86.0110 ha         1 OAY       0.131000
     42 H14          0.2590     0.2900    87.2430 ha         1 OAY       0.128000
     43 H15          0.4280    -4.9150    84.2470 hc         1 OAY       0.063033
     44 H16         -0.5690    -3.8750    83.2050 hc         1 OAY       0.063033
     45 H17          1.1550    -3.7890    83.0960 hc         1 OAY       0.063033
     46 H18          2.6510    -3.1560    87.2420 hc         1 OAY       0.111700
     47 H19          0.4680    -4.2650    87.8010 hc         1 OAY       0.081450
     48 H20          0.8290    -5.6170    86.6200 hc         1 OAY       0.081450
     49 H21         -4.6040    -5.2210    89.3760 hc         1 OAY       0.074700
     50 H22         -5.4660    -3.7010    88.8310 hc         1 OAY       0.074700
     51 H23         -6.8020    -5.0450    87.1710 hc         1 OAY       0.074700
     52 H24         -5.9470    -6.5700    87.7160 hc         1 OAY       0.074700
     53 H6           4.3050    -6.3550    85.9880 hn         1 OAY       0.517000
     54 C24          5.3210    -6.4820    83.3290 c3         1 OAY       0.097300
@<TRIPOS>BOND
     1     1    12 1   
     2     1    16 1   
     3     1    18 2   
     4     2     7 1   
     5     2    16 1   
     6     2    30 1   
     7     2    31 1   
     8     3    14 1   
     9     3    32 1   
    10     3    33 1   
    11     3    34 1   
    12     4     5 2   
    13     4    20 1   
    14     4    22 1   
    15     5    24 1   
    16     5    26 1   
    17     6    26 1   
    18     6    27 1   
    19     6    38 1   
    20     6    39 1   
    21     7    28 1   
    22     7    29 1   
    23     7    40 1   
    24     8     9 ar  
    25     8    13 ar  
    26     8    20 1   
    27     9    10 ar  
    28     9    41 1   
    29    10    11 ar  
    30    10    42 1   
    31    11    12 ar  
    32    11    14 1   
    33    12    13 ar  
    34    13    17 1   
    35    14    15 1   
    36    15    16 1   
    37    15    19 2   
    38    17    43 1   
    39    17    44 1   
    40    17    45 1   
    41    20    21 2   
    42    22    23 1   
    43    22    25 2   
    44    23    24 1   
    45    23    54 1   
    46    24    53 1   
    47    26    27 1   
    48    26    46 1   
    49    27    47 1   
    50    27    48 1   
    51    28    29 1   
    52    28    49 1   
    53    28    50 1   
    54    29    51 1   
    55    29    52 1   
    56    35    54 1   
    57    36    54 1   
    58    37    54 1   
@<TRIPOS>SUBSTRUCTURE
     1 OAY         1 TEMP              0 ****  ****    0 ROOT
