@<TRIPOS>MOLECULE
OAY
   54    58     1     0     0
SMALL
abcg2


@<TRIPOS>ATOM
      1 C10         -2.1000    -3.2800    85.5290 c          1 OAY       0.591600
      2 C13         -4.4100    -3.7090    86.2180 c3         1 OAY       0.132000
      3 C15         -2.0370     0.0660    88.1890 c3         1 OAY       0.085300
      4 C17          3.3380    -3.5390    84.6130 cc         1 OAY      -0.384400
      5 C22          3.1170    -4.4460    85.6490 cd         1 OAY       0.225800
      6 C26          2.3120    -5.3770    87.9510 cx         1 OAY      -0.106900
      7 C28         -4.3310    -4.9460    87.0740 cx         1 OAY      -0.151700
      8 C1           1.4090    -1.9670    85.0870 ca         1 OAY      -0.207600
      9 C2           1.3790    -0.8930    85.9770 ca         1 OAY      -0.014000
     10 C3           0.2470    -0.5900    86.7000 ca         1 OAY      -0.191000
     11 C4          -0.9020    -1.3730    86.5380 ca         1 OAY       0.132600
     12 C5          -0.8950    -2.4480    85.6260 ca         1 OAY      -0.223600
     13 C6           0.2650    -2.7370    84.8670 ca         1 OAY       0.064700
     14 N7          -2.0440    -1.0740    87.2700 n          1 OAY      -0.307000
     15 C8          -3.2110    -1.7970    87.1680 c          1 OAY       0.623000
     16 N9          -3.1900    -2.8800    86.2990 n          1 OAY      -0.374400
     17 C11          0.2800    -3.7970    83.7980 c3         1 OAY      -0.059800
     18 O12         -2.1970    -4.2900    84.8460 o          1 OAY      -0.532000
     19 O14         -4.2150    -1.5100    87.8050 o          1 OAY      -0.562000
     20 C16          2.7190    -2.2440    84.4070 c          1 OAY       0.625900
     21 O18          3.2410    -1.3640    83.7240 o          1 OAY      -0.504100
     22 C19          4.2870    -4.1590    83.6900 c          1 OAY       0.576200
     23 N20          4.5990    -5.3810    84.2650 n          1 OAY      -0.268200
     24 N21          3.8250    -5.5620    85.3940 na         1 OAY      -0.547200
     25 O23          4.7230    -3.7950    82.5960 o          1 OAY      -0.524000
     26 C25          2.3230    -4.3180    86.8760 cx         1 OAY      -0.122500
     27 C27          1.1030    -5.1990    87.0930 cx         1 OAY      -0.106900
     28 C29         -4.5980    -4.8610    88.5520 cx         1 OAY      -0.125900
     29 C30         -5.6010    -5.5170    87.6400 cx         1 OAY      -0.125900
     30 H1          -5.2390    -3.0820    86.5280 h1         1 OAY       0.075200
     31 H2          -4.5420    -3.9770    85.1710 h1         1 OAY       0.075200
     32 H3          -3.0140     0.1320    88.6480 h1         1 OAY       0.059700
     33 H4          -1.2800    -0.0780    88.9600 h1         1 OAY       0.059700
     34 H5          -1.8280     0.9860    87.6430 h1         1 OAY       0.059700
     35 H7           4.3580    -7.1940    83.2280 h1         1 OAY       0.055033
     36 H8           5.7140    -6.1510    82.7300 h1         1 OAY       0.055033
     37 H9           5.8210    -7.0750    84.2430 h1         1 OAY       0.055033
     38 H10          2.9010    -6.2740    87.8140 hc         1 OAY       0.081450
     39 H11          2.2820    -5.0160    88.9700 hc         1 OAY       0.081450
     40 H12         -3.5810    -5.6610    86.7630 hc         1 OAY       0.088700
     41 H13          2.2720    -0.2970    86.1140 ha         1 OAY       0.131000
     42 H14          0.2630     0.2400    87.3860 ha         1 OAY       0.128000
     43 H15          0.2550    -4.7990    84.2260 hc         1 OAY       0.063033
     44 H16         -0.5950    -3.7090    83.1580 hc         1 OAY       0.063033
     45 H17          1.1700    -3.7090    83.1810 hc         1 OAY       0.063033
     46 H18          2.2130    -3.3000    87.2160 hc         1 OAY       0.111700
     47 H19          0.2270    -4.7160    87.5030 hc         1 OAY       0.081450
     48 H20          0.9080    -5.9510    86.3400 hc         1 OAY       0.081450
     49 H21         -4.0140    -5.4940    89.2070 hc         1 OAY       0.074700
     50 H22         -4.8470    -3.8910    88.9590 hc         1 OAY       0.074700
     51 H23         -6.5220    -4.9830    87.4400 hc         1 OAY       0.074700
     52 H24         -5.7030    -6.5940    87.6740 hc         1 OAY       0.074700
     53 H6           4.1890    -6.1770    86.1100 hn         1 OAY       0.517000
     54 C24          5.1510    -6.5290    83.5790 c3         1 OAY       0.097300
@<TRIPOS>BOND
     1     1    12 1   
     2     1    16 1   
     3     1    18 2   
     4     2     7 1   
     5     2    16 1   
     6     2    30 1   
     7     2    31 1   
     8     3    14 1   
     9     3    32 1   
    10     3    33 1   
    11     3    34 1   
    12     4     5 2   
    13     4    20 1   
    14     4    22 1   
    15     5    24 1   
    16     5    26 1   
    17     6    26 1   
    18     6    27 1   
    19     6    38 1   
    20     6    39 1   
    21     7    28 1   
    22     7    29 1   
    23     7    40 1   
    24     8     9 ar  
    25     8    13 ar  
    26     8    20 1   
    27     9    10 ar  
    28     9    41 1   
    29    10    11 ar  
    30    10    42 1   
    31    11    12 ar  
    32    11    14 1   
    33    12    13 ar  
    34    13    17 1   
    35    14    15 1   
    36    15    16 1   
    37    15    19 2   
    38    17    43 1   
    39    17    44 1   
    40    17    45 1   
    41    20    21 2   
    42    22    23 1   
    43    22    25 2   
    44    23    24 1   
    45    23    54 1   
    46    24    53 1   
    47    26    27 1   
    48    26    46 1   
    49    27    47 1   
    50    27    48 1   
    51    28    29 1   
    52    28    49 1   
    53    28    50 1   
    54    29    51 1   
    55    29    52 1   
    56    35    54 1   
    57    36    54 1   
    58    37    54 1   
@<TRIPOS>SUBSTRUCTURE
     1 OAY         1 TEMP              0 ****  ****    0 ROOT
