@<TRIPOS>MOLECULE
OAZ
   20    20     1     0     0
SMALL
No Charge or Current Charge


@<TRIPOS>ATOM
      1 C11          3.2190    -0.5780     0.2680 c          1 OAZ       0.826100
      2 O12          3.2190    -1.7120    -0.1830 o          1 OAZ      -0.716500
      3 O13          2.0580     0.1320     0.3260 os         1 OAZ      -0.555100
      4 C14          0.8440    -0.4870    -0.1490 c3         1 OAZ       0.243900
      5 C15         -0.3230     0.4980    -0.0120 ca         1 OAZ      -0.031300
      6 C16         -1.5910     0.0890     0.4730 ca         1 OAZ       0.199000
      7 N17         -1.8350    -1.1910     0.8430 n2         1 OAZ      -0.415000
      8 N18         -2.2980    -1.9760     0.0000 n1         1 OAZ       0.237000
      9 N19         -2.5860    -2.7280    -0.8030 n1         1 OAZ      -0.108000
     10 C20         -2.6370     1.0260     0.5780 ca         1 OAZ      -0.171000
     11 C21         -2.4410     2.3620     0.1950 ca         1 OAZ      -0.117000
     12 C22         -1.1930     2.7690    -0.2980 ca         1 OAZ      -0.132000
     13 C23         -0.1410     1.8430    -0.4030 ca         1 OAZ      -0.073000
     14 H2           0.9400    -0.7660    -1.2070 h1         1 OAZ       0.041200
     15 H3           0.6450    -1.4030     0.4220 h1         1 OAZ       0.041200
     16 H5          -3.6090     0.7150     0.9550 ha         1 OAZ       0.095000
     17 H6          -3.2550     3.0790     0.2770 ha         1 OAZ       0.096000
     18 H7          -1.0390     3.8030    -0.6000 ha         1 OAZ       0.103000
     19 H8           0.8220     2.1710    -0.7890 ha         1 OAZ       0.153000
     20 OXT          4.2210    -0.0230     0.6800 o          1 OAZ      -0.716500
@<TRIPOS>BOND
     1     1     2 1   
     2     1     3 1   
     3     1    20 1   
     4     3     4 1   
     5     4     5 1   
     6     4    14 1   
     7     4    15 1   
     8     5     6 ar  
     9     5    13 ar  
    10     6     7 1   
    11     6    10 ar  
    12     7     8 1   
    13     8     9 3   
    14    10    11 ar  
    15    10    16 1   
    16    11    12 ar  
    17    11    17 1   
    18    12    13 ar  
    19    12    18 1   
    20    13    19 1   
@<TRIPOS>SUBSTRUCTURE
     1 OAZ         1 TEMP              0 ****  ****    0 ROOT
