@<TRIPOS>MOLECULE
OAZ
   20    20     1     0     0
SMALL
abcg2


@<TRIPOS>ATOM
      1 C11          3.3490    -0.4590     0.0440 c          1 OAZ       0.826100
      2 O12          3.2630    -1.6920     0.0380 o          1 OAZ      -0.716500
      3 O13          2.1590     0.2670     0.0530 os         1 OAZ      -0.555100
      4 C14          0.9570    -0.4510     0.0510 c3         1 OAZ       0.243900
      5 C15         -0.2010     0.5120     0.0340 ca         1 OAZ      -0.031300
      6 C16         -1.5060     0.0030     0.0340 ca         1 OAZ       0.199000
      7 N17         -1.6060    -1.4020     0.0520 n2         1 OAZ      -0.415000
      8 N18         -2.7150    -1.9120     0.0440 n1         1 OAZ       0.237000
      9 N19         -3.6800    -2.4830     0.0400 n1         1 OAZ      -0.108000
     10 C20         -2.6070     0.8530     0.0170 ca         1 OAZ      -0.171000
     11 C21         -2.4170     2.2260    -0.0020 ca         1 OAZ      -0.117000
     12 C22         -1.1320     2.7470    -0.0020 ca         1 OAZ      -0.132000
     13 C23         -0.0370     1.8910     0.0160 ca         1 OAZ      -0.073000
     14 H2           0.8820    -1.1130    -0.8200 h1         1 OAZ       0.041200
     15 H3           0.8720    -1.0990     0.9310 h1         1 OAZ       0.041200
     16 H5          -3.6150     0.4570     0.0170 ha         1 OAZ       0.095000
     17 H6          -3.2750     2.8840    -0.0160 ha         1 OAZ       0.096000
     18 H7          -0.9780     3.8170    -0.0170 ha         1 OAZ       0.103000
     19 H8           0.9610     2.3070     0.0160 ha         1 OAZ       0.153000
     20 OXT          4.3460     0.2700     0.0440 o          1 OAZ      -0.716500
@<TRIPOS>BOND
     1     1     2 1   
     2     1     3 1   
     3     1    20 1   
     4     3     4 1   
     5     4     5 1   
     6     4    14 1   
     7     4    15 1   
     8     5     6 ar  
     9     5    13 ar  
    10     6     7 1   
    11     6    10 ar  
    12     7     8 1   
    13     8     9 3   
    14    10    11 ar  
    15    10    16 1   
    16    11    12 ar  
    17    11    17 1   
    18    12    13 ar  
    19    12    18 1   
    20    13    19 1   
@<TRIPOS>SUBSTRUCTURE
     1 OAZ         1 TEMP              0 ****  ****    0 ROOT
