@<TRIPOS>MOLECULE
OB0
   46    48     1     0     0
SMALL
No Charge or Current Charge


@<TRIPOS>ATOM
      1 O5          20.9140   -43.0530    26.4860 o          1 OB0      -0.534000
      2 S           20.4560   -43.5330    27.7950 sy         1 OB0       1.161600
      3 O           19.9380   -44.8960    27.9530 o          1 OB0      -0.534000
      4 C10         21.7250   -43.2150    29.0370 ca         1 OB0      -0.311500
      5 C15         21.7640   -43.9780    30.2230 ca         1 OB0      -0.008000
      6 C14         22.7540   -43.7280    31.1910 ca         1 OB0      -0.186000
      7 C13         23.7100   -42.7210    30.9770 ca         1 OB0       0.103100
      8 O4          24.6730   -42.4790    31.9200 oh         1 OB0      -0.550100
      9 C12         23.6790   -41.9610    29.7890 ca         1 OB0       0.104100
     10 O3          24.6150   -40.9850    29.5870 oh         1 OB0      -0.529100
     11 C11         22.6920   -42.2080    28.8200 ca         1 OB0      -0.032000
     12 N           19.1910   -42.4920    28.2610 n3         1 OB0      -0.716500
     13 C9          18.5850   -42.7930    29.5910 c6         1 OB0       0.191800
     14 C8          17.3400   -41.9060    29.8810 c6         1 OB0       0.189300
     15 N1          17.6540   -40.4510    29.7870 n3         1 OB0      -0.708500
     16 C1          18.2580   -40.1490    28.4570 c6         1 OB0       0.189300
     17 C           19.5040   -41.0360    28.1660 c6         1 OB0       0.191800
     18 S1          16.3910   -39.4100    30.2550 sy         1 OB0       1.161600
     19 O1          16.9010   -38.0460    30.0810 o          1 OB0      -0.538500
     20 O2          15.9430   -39.8800    31.5710 o          1 OB0      -0.538500
     21 C2          15.1180   -39.7420    29.0300 ca         1 OB0      -0.384500
     22 C7          15.0730   -38.9900    27.8390 ca         1 OB0       0.039000
     23 C6          14.0750   -39.2540    26.8870 ca         1 OB0      -0.218500
     24 C5          13.1260   -40.2540    27.1200 ca         1 OB0       0.379000
     25 N2          12.1600   -40.5060    26.1900 nv         1 OB0      -1.094000
     26 C4          13.1640   -40.9970    28.3050 ca         1 OB0      -0.218500
     27 C3          14.1560   -40.7440    29.2660 ca         1 OB0       0.039000
     28 H18         21.0300   -44.7630    30.4010 ha         1 OB0       0.137000
     29 H17         22.7700   -44.3210    32.1020 ha         1 OB0       0.120000
     30 H16         24.5410   -43.0980    32.6710 ho         1 OB0       0.484000
     31 H15         25.1950   -40.9920    30.3830 ho         1 OB0       0.485000
     32 H14         22.6840   -41.6140    27.9080 ha         1 OB0       0.153000
     33 H13         19.3180   -42.6280    30.3950 h1         1 OB0       0.065950
     34 H12         18.2740   -43.8460    29.6490 h1         1 OB0       0.065950
     35 H10         16.9670   -42.1610    30.8840 h1         1 OB0       0.065450
     36 H11         16.5520   -42.1770    29.1640 h1         1 OB0       0.065450
     37 H2          18.5700   -39.0960    28.3990 h1         1 OB0       0.065450
     38 H3          17.5250   -40.3150    27.6540 h1         1 OB0       0.065450
     39 H           20.2930   -40.7640    28.8820 h1         1 OB0       0.065950
     40 H1          19.8750   -40.7810    27.1630 h1         1 OB0       0.065950
     41 H9          15.8040   -38.2060    27.6460 ha         1 OB0       0.130000
     42 H8          14.0440   -38.6740    25.9690 ha         1 OB0       0.117500
     43 H6          12.2530   -40.1040    25.2600 hn         1 OB0       0.476500
     44 H7          11.5990   -41.3510    26.2720 hn         1 OB0       0.476500
     45 H5          12.4250   -41.7710    28.4880 ha         1 OB0       0.117500
     46 H4          14.1720   -41.3280    30.1850 ha         1 OB0       0.130000
@<TRIPOS>BOND
     1     1     2 2   
     2     2     3 2   
     3     2     4 1   
     4     2    12 1   
     5     4     5 ar  
     6     4    11 ar  
     7     5     6 ar  
     8     5    28 1   
     9     6     7 ar  
    10     6    29 1   
    11     7     8 1   
    12     7     9 ar  
    13     8    30 1   
    14     9    10 1   
    15     9    11 ar  
    16    10    31 1   
    17    11    32 1   
    18    12    13 1   
    19    12    17 1   
    20    13    14 1   
    21    13    33 1   
    22    13    34 1   
    23    14    15 1   
    24    14    35 1   
    25    14    36 1   
    26    15    16 1   
    27    15    18 1   
    28    16    17 1   
    29    16    37 1   
    30    16    38 1   
    31    17    39 1   
    32    17    40 1   
    33    18    19 2   
    34    18    20 2   
    35    18    21 1   
    36    21    22 ar  
    37    21    27 ar  
    38    22    23 ar  
    39    22    41 1   
    40    23    24 ar  
    41    23    42 1   
    42    24    25 1   
    43    24    26 ar  
    44    25    43 1   
    45    25    44 1   
    46    26    27 ar  
    47    26    45 1   
    48    27    46 1   
@<TRIPOS>SUBSTRUCTURE
     1 OB0         1 TEMP              0 ****  ****    0 ROOT
