@<TRIPOS>MOLECULE
OB0
   46    48     1     0     0
SMALL
bcc


@<TRIPOS>ATOM
      1 O5          20.9750   -42.9330    26.7050 o          1 OB0      -0.604800
      2 S           20.5290   -43.4100    28.0030 sy         1 OB0       1.303200
      3 O           20.0090   -44.7600    28.1330 o          1 OB0      -0.604800
      4 C10         21.8550   -43.2110    29.1490 ca         1 OB0      -0.311500
      5 C15         21.8920   -43.9830    30.2990 ca         1 OB0      -0.026000
      6 C14         22.9240   -43.7860    31.2040 ca         1 OB0      -0.204000
      7 C13         23.9040   -42.8340    30.9640 ca         1 OB0       0.103100
      8 O4          24.9400   -42.5920    31.7830 oh         1 OB0      -0.511100
      9 C12         23.8550   -42.0540    29.7960 ca         1 OB0       0.104100
     10 O3          24.7880   -41.1250    29.5260 oh         1 OB0      -0.490100
     11 C11         22.8290   -42.2490    28.8910 ca         1 OB0      -0.050000
     12 N           19.3140   -42.3900    28.4880 n3         1 OB0      -0.716500
     13 C9          18.6160   -42.7260    29.7260 c6         1 OB0       0.191800
     14 C8          17.2860   -41.9950    29.7610 c6         1 OB0       0.189300
     15 N1          17.5270   -40.5610    29.6390 n3         1 OB0      -0.708500
     16 C1          18.2230   -40.2260    28.4000 c6         1 OB0       0.189300
     17 C           19.5540   -40.9550    28.3620 c6         1 OB0       0.191800
     18 S1          16.2820   -39.5520    30.0910 sy         1 OB0       1.303200
     19 O1          16.7970   -38.1970    29.9650 o          1 OB0      -0.609300
     20 O2          15.8280   -40.0270    31.3890 o          1 OB0      -0.609300
     21 C2          14.9800   -39.7680    28.9380 ca         1 OB0      -0.384500
     22 C7          14.9550   -39.0200    27.7610 ca         1 OB0       0.021000
     23 C6          13.9490   -39.2130    26.8400 ca         1 OB0      -0.236500
     24 C5          12.9300   -40.1560    27.0700 ca         1 OB0       0.240600
     25 N2          11.9110   -40.3100    26.1890 nv         1 OB0      -0.845200
     26 C4          12.9740   -40.9030    28.2620 ca         1 OB0      -0.236500
     27 C3          13.9830   -40.7100    29.1800 ca         1 OB0       0.021000
     28 H18         21.1430   -44.7370    30.4970 ha         1 OB0       0.155000
     29 H17         22.9710   -44.3870    32.1050 ha         1 OB0       0.138000
     30 H16         24.9210   -43.1600    32.5630 ho         1 OB0       0.445000
     31 H15         25.4580   -41.0950    30.2200 ho         1 OB0       0.446000
     32 H14         22.8080   -41.6550    27.9870 ha         1 OB0       0.171000
     33 H13         19.2100   -42.4500    30.6050 h1         1 OB0       0.065950
     34 H12         18.4190   -43.7950    29.7640 h1         1 OB0       0.065950
     35 H10         16.8050   -42.2130    30.7120 h1         1 OB0       0.065450
     36 H11         16.6440   -42.3640    28.9510 h1         1 OB0       0.065450
     37 H2          18.4190   -39.1570    28.3590 h1         1 OB0       0.065450
     38 H3          17.6290   -40.5050    27.5200 h1         1 OB0       0.065450
     39 H           20.1980   -40.5870    29.1700 h1         1 OB0       0.065950
     40 H1          20.0330   -40.7380    27.4100 h1         1 OB0       0.065950
     41 H9          15.7160   -38.2780    27.5600 ha         1 OB0       0.148000
     42 H8          13.9350   -38.6240    25.9310 ha         1 OB0       0.135500
     43 H6          12.0170   -39.9470    25.2570 hn         1 OB0       0.421300
     44 H7          11.3310   -41.1290    26.2590 hn         1 OB0       0.421300
     45 H5          12.2000   -41.6330    28.4640 ha         1 OB0       0.135500
     46 H4          13.9830   -41.2940    30.0910 ha         1 OB0       0.148000
@<TRIPOS>BOND
     1     1     2 2   
     2     2     3 2   
     3     2     4 1   
     4     2    12 1   
     5     4     5 ar  
     6     4    11 ar  
     7     5     6 ar  
     8     5    28 1   
     9     6     7 ar  
    10     6    29 1   
    11     7     8 1   
    12     7     9 ar  
    13     8    30 1   
    14     9    10 1   
    15     9    11 ar  
    16    10    31 1   
    17    11    32 1   
    18    12    13 1   
    19    12    17 1   
    20    13    14 1   
    21    13    33 1   
    22    13    34 1   
    23    14    15 1   
    24    14    35 1   
    25    14    36 1   
    26    15    16 1   
    27    15    18 1   
    28    16    17 1   
    29    16    37 1   
    30    16    38 1   
    31    17    39 1   
    32    17    40 1   
    33    18    19 2   
    34    18    20 2   
    35    18    21 1   
    36    21    22 ar  
    37    21    27 ar  
    38    22    23 ar  
    39    22    41 1   
    40    23    24 ar  
    41    23    42 1   
    42    24    25 1   
    43    24    26 ar  
    44    25    43 1   
    45    25    44 1   
    46    26    27 ar  
    47    26    45 1   
    48    27    46 1   
@<TRIPOS>SUBSTRUCTURE
     1 OB0         1 TEMP              0 ****  ****    0 ROOT
