@<TRIPOS>MOLECULE
OB1
   52    56     1     0     0
SMALL
No Charge or Current Charge


@<TRIPOS>ATOM
      1 C01         -2.1830     3.1860     0.8180 ca         1 OB1      -0.179000
      2 C02         -2.2540     4.1500    -0.1970 ca         1 OB1       0.150100
      3 C03         -1.8770     3.8190    -1.5080 ca         1 OB1      -0.179000
      4 C04         -1.4300     2.5180    -1.8040 ca         1 OB1      -0.051500
      5 C05         -1.3640     1.5430    -0.7900 ca         1 OB1      -0.083800
      6 C06         -1.7360     1.8860     0.5250 ca         1 OB1      -0.051500
      7 O01         -2.6880     5.4070     0.0970 oh         1 OB1      -0.531100
      8 C07         -0.8790     0.1700    -1.0950 ce         1 OB1      -0.068400
      9 C08         -1.3520    -1.0490    -0.6910 cf         1 OB1      -0.074400
     10 C09         -0.3430    -2.0530    -1.2940 c5         1 OB1       0.185500
     11 C10         -2.5520    -1.4580     0.0680 ca         1 OB1      -0.073800
     12 C11          0.3930    -0.1170    -1.9060 c5         1 OB1       0.217500
     13 C12         -3.7140    -0.6580     0.0670 ca         1 OB1      -0.056500
     14 C13         -4.8530    -1.0550     0.7880 ca         1 OB1      -0.178000
     15 C14         -4.8460    -2.2560     1.5110 ca         1 OB1       0.147100
     16 C15         -3.7000    -3.0650     1.5120 ca         1 OB1      -0.178000
     17 C16         -2.5580    -2.6690     0.7910 ca         1 OB1      -0.056500
     18 O02         -5.9560    -2.6320     2.2060 oh         1 OB1      -0.530100
     19 C17          1.4230    -0.5010    -0.8030 c5         1 OB1      -0.369700
     20 C18          0.9440    -1.9620    -0.4170 c5         1 OB1      -0.078400
     21 S01          3.0950    -0.5090    -1.6260 s6         1 OB1       1.184100
     22 O03          0.0830    -1.3860    -2.4780 os         1 OB1      -0.404000
     23 N01          3.9020    -0.9070    -0.2220 nu         1 OB1      -0.870100
     24 O04          3.2760    -1.6550    -2.5190 o          1 OB1      -0.518000
     25 O05          3.5270     0.8350    -2.0150 o          1 OB1      -0.518000
     26 C19          3.9140    -0.2660     1.0190 ca         1 OB1       0.232000
     27 C20          3.7400     1.1270     1.1640 ca         1 OB1      -0.114500
     28 C21          3.7590     1.7190     2.4400 ca         1 OB1      -0.096000
     29 C22          3.9570     0.9260     3.5820 ca         1 OB1      -0.108000
     30 C23          4.1400    -0.4590     3.4460 ca         1 OB1      -0.096000
     31 C24          4.1200    -1.0490     2.1700 ca         1 OB1      -0.114500
     32 H1          -2.4710     3.4440     1.8340 ha         1 OB1       0.124000
     33 H2          -1.9280     4.5600    -2.3020 ha         1 OB1       0.124000
     34 H3          -1.1450     2.2670    -2.8230 ha         1 OB1       0.119500
     35 H4          -1.6750     1.1440     1.3180 ha         1 OB1       0.119500
     36 H5          -2.6730     5.9410    -0.7260 ho         1 OB1       0.467000
     37 H6          -0.7280    -3.0640    -1.4910 h1         1 OB1       0.105700
     38 H7           0.6870     0.6420    -2.6480 h1         1 OB1       0.117700
     39 H8          -3.7440     0.2660    -0.5040 ha         1 OB1       0.117500
     40 H9          -5.7440    -0.4320     0.7800 ha         1 OB1       0.123000
     41 H10         -3.6840    -3.9990     2.0680 ha         1 OB1       0.123000
     42 H11         -1.6760    -3.3040     0.8080 ha         1 OB1       0.117500
     43 H12         -5.7710    -3.4900     2.6440 ho         1 OB1       0.466000
     44 H13          1.4460     0.2120     0.0260 h1         1 OB1       0.116700
     45 H14          0.7260    -2.0630     0.6520 hc         1 OB1       0.059200
     46 H15          1.6590    -2.7500    -0.6810 hc         1 OB1       0.059200
     47 H16          3.9410    -1.9160    -0.2230 hn         1 OB1       0.489000
     48 H17          3.5940     1.7640     0.3000 ha         1 OB1       0.128500
     49 H18          3.6220     2.7940     2.5420 ha         1 OB1       0.119500
     50 H19          3.9710     1.3840     4.5690 ha         1 OB1       0.119000
     51 H20          4.2960    -1.0760     4.3290 ha         1 OB1       0.119500
     52 H21          4.2630    -2.1220     2.0780 ha         1 OB1       0.128500
@<TRIPOS>BOND
     1     1     2 ar  
     2     1     6 ar  
     3     1    32 1   
     4     2     3 ar  
     5     2     7 1   
     6     3     4 ar  
     7     3    33 1   
     8     4     5 ar  
     9     4    34 1   
    10     5     6 ar  
    11     5     8 1   
    12     6    35 1   
    13     7    36 1   
    14     8     9 2   
    15     8    12 1   
    16     9    10 1   
    17     9    11 1   
    18    10    20 1   
    19    10    22 1   
    20    10    37 1   
    21    11    13 ar  
    22    11    17 ar  
    23    12    19 1   
    24    12    22 1   
    25    12    38 1   
    26    13    14 ar  
    27    13    39 1   
    28    14    15 ar  
    29    14    40 1   
    30    15    16 ar  
    31    15    18 1   
    32    16    17 ar  
    33    16    41 1   
    34    17    42 1   
    35    18    43 1   
    36    19    20 1   
    37    19    21 1   
    38    19    44 1   
    39    20    45 1   
    40    20    46 1   
    41    21    23 1   
    42    21    24 2   
    43    21    25 2   
    44    23    26 1   
    45    23    47 1   
    46    26    27 ar  
    47    26    31 ar  
    48    27    28 ar  
    49    27    48 1   
    50    28    29 ar  
    51    28    49 1   
    52    29    30 ar  
    53    29    50 1   
    54    30    31 ar  
    55    30    51 1   
    56    31    52 1   
@<TRIPOS>SUBSTRUCTURE
     1 OB1         1 TEMP              0 ****  ****    0 ROOT
