@<TRIPOS>MOLECULE
OB1
   52    56     1     0     0
SMALL
abcg2


@<TRIPOS>ATOM
      1 C01         -2.1070     3.0490     0.9070 ca         1 OB1      -0.179000
      2 C02         -2.1140     4.0670    -0.0470 ca         1 OB1       0.150100
      3 C03         -1.7510     3.7760    -1.3590 ca         1 OB1      -0.179000
      4 C04         -1.3910     2.4850    -1.7070 ca         1 OB1      -0.051500
      5 C05         -1.3950     1.4500    -0.7710 ca         1 OB1      -0.083800
      6 C06         -1.7500     1.7640     0.5440 ca         1 OB1      -0.051500
      7 O01         -2.4690     5.3010     0.3540 oh         1 OB1      -0.531100
      8 C07         -0.9900     0.1000    -1.1540 ce         1 OB1      -0.068400
      9 C08         -1.4290    -1.1170    -0.7870 cf         1 OB1      -0.074400
     10 C09         -0.3780    -2.0790    -1.3200 c5         1 OB1       0.185500
     11 C10         -2.5760    -1.5360     0.0050 ca         1 OB1      -0.073800
     12 C11          0.2820    -0.1740    -1.9360 c5         1 OB1       0.217500
     13 C12         -3.7670    -0.8010     0.0250 ca         1 OB1      -0.056500
     14 C13         -4.8580    -1.2140     0.7630 ca         1 OB1      -0.178000
     15 C14         -4.7910    -2.3890     1.5140 ca         1 OB1       0.147100
     16 C15         -3.6220    -3.1430     1.4960 ca         1 OB1      -0.178000
     17 C16         -2.5370    -2.7200     0.7440 ca         1 OB1      -0.056500
     18 O02         -5.8790    -2.7430     2.2230 oh         1 OB1      -0.530100
     19 C17          1.3290    -0.5130    -0.8280 c5         1 OB1      -0.369700
     20 C18          0.8790    -1.9270    -0.4240 c5         1 OB1      -0.078400
     21 S01          2.9990    -0.4480    -1.4840 s6         1 OB1       1.184100
     22 O03          0.0430    -1.4350    -2.5090 os         1 OB1      -0.404000
     23 N01          4.0020    -0.8950    -0.2320 nu         1 OB1      -0.870100
     24 O04          3.1770    -1.4610    -2.5100 o          1 OB1      -0.518000
     25 O05          3.2740     0.9440    -1.7980 o          1 OB1      -0.518000
     26 C19          3.9550    -0.1770     0.9920 ca         1 OB1       0.232000
     27 C20          4.4600     1.1170     1.0620 ca         1 OB1      -0.114500
     28 C21          4.4160     1.8050     2.2660 ca         1 OB1      -0.096000
     29 C22          3.8950     1.2040     3.4040 ca         1 OB1      -0.108000
     30 C23          3.4090    -0.0950     3.3340 ca         1 OB1      -0.096000
     31 C24          3.4270    -0.7810     2.1300 ca         1 OB1      -0.114500
     32 H1          -2.3690     3.2730     1.9340 ha         1 OB1       0.124000
     33 H2          -1.7460     4.5560    -2.1120 ha         1 OB1       0.124000
     34 H3          -1.1150     2.2820    -2.7350 ha         1 OB1       0.119500
     35 H4          -1.7320     0.9930     1.3030 ha         1 OB1       0.119500
     36 H5          -2.4270     5.9220    -0.3820 ho         1 OB1       0.467000
     37 H6          -0.6920    -3.1040    -1.5090 h1         1 OB1       0.105700
     38 H7           0.5820     0.5700    -2.6730 h1         1 OB1       0.117700
     39 H8          -3.8490     0.1040    -0.5620 ha         1 OB1       0.117500
     40 H9          -5.7720    -0.6340     0.7540 ha         1 OB1       0.123000
     41 H10         -3.5520    -4.0620     2.0670 ha         1 OB1       0.123000
     42 H11         -1.6410    -3.3300     0.7490 ha         1 OB1       0.117500
     43 H12         -5.7260    -3.5730     2.6860 ho         1 OB1       0.466000
     44 H13          1.3110     0.2090    -0.0110 h1         1 OB1       0.116700
     45 H14          0.6620    -2.0060     0.6400 hc         1 OB1       0.059200
     46 H15          1.6130    -2.6960    -0.6700 hc         1 OB1       0.059200
     47 H16          4.0380    -1.9030    -0.1270 hn         1 OB1       0.489000
     48 H17          4.8970     1.5780     0.1880 ha         1 OB1       0.128500
     49 H18          4.8080     2.8130     2.3170 ha         1 OB1       0.119500
     50 H19          3.8760     1.7420     4.3430 ha         1 OB1       0.119000
     51 H20          3.0070    -0.5750     4.2170 ha         1 OB1       0.119500
     52 H21          3.0370    -1.7910     2.0740 ha         1 OB1       0.128500
@<TRIPOS>BOND
     1     1     2 ar  
     2     1     6 ar  
     3     1    32 1   
     4     2     3 ar  
     5     2     7 1   
     6     3     4 ar  
     7     3    33 1   
     8     4     5 ar  
     9     4    34 1   
    10     5     6 ar  
    11     5     8 1   
    12     6    35 1   
    13     7    36 1   
    14     8     9 2   
    15     8    12 1   
    16     9    10 1   
    17     9    11 1   
    18    10    20 1   
    19    10    22 1   
    20    10    37 1   
    21    11    13 ar  
    22    11    17 ar  
    23    12    19 1   
    24    12    22 1   
    25    12    38 1   
    26    13    14 ar  
    27    13    39 1   
    28    14    15 ar  
    29    14    40 1   
    30    15    16 ar  
    31    15    18 1   
    32    16    17 ar  
    33    16    41 1   
    34    17    42 1   
    35    18    43 1   
    36    19    20 1   
    37    19    21 1   
    38    19    44 1   
    39    20    45 1   
    40    20    46 1   
    41    21    23 1   
    42    21    24 2   
    43    21    25 2   
    44    23    26 1   
    45    23    47 1   
    46    26    27 ar  
    47    26    31 ar  
    48    27    28 ar  
    49    27    48 1   
    50    28    29 ar  
    51    28    49 1   
    52    29    30 ar  
    53    29    50 1   
    54    30    31 ar  
    55    30    51 1   
    56    31    52 1   
@<TRIPOS>SUBSTRUCTURE
     1 OB1         1 TEMP              0 ****  ****    0 ROOT
