@<TRIPOS>MOLECULE
OB2
   55    59     1     0     0
SMALL
No Charge or Current Charge


@<TRIPOS>ATOM
      1 C01          3.8730    -1.0660     0.0500 ca         1 OB2      -0.056500
      2 C02          4.9810    -1.5050    -0.6960 ca         1 OB2      -0.179000
      3 C03          4.8350    -2.5400    -1.6310 ca         1 OB2       0.146100
      4 O01          5.9140    -2.9580    -2.3480 oh         1 OB2      -0.530100
      5 C04          3.5810    -3.1420    -1.8200 ca         1 OB2      -0.179000
      6 C05          2.4710    -2.7040    -1.0750 ca         1 OB2      -0.056500
      7 C06          2.6080    -1.6570    -0.1410 ca         1 OB2      -0.072800
      8 C07          1.4360    -1.2000     0.6560 ce         1 OB2      -0.074400
      9 C08          1.0790     0.0540     1.0740 cf         1 OB2      -0.070400
     10 C09          1.6230     1.3950     0.7760 ca         1 OB2      -0.082800
     11 C10          2.2270     1.6580    -0.4700 ca         1 OB2      -0.052000
     12 C11          2.7360     2.9350    -0.7630 ca         1 OB2      -0.179000
     13 C12          2.6390     3.9630     0.1870 ca         1 OB2       0.148100
     14 O02          3.1290     5.2040    -0.0870 oh         1 OB2      -0.530100
     15 C13          2.0320     3.7150     1.4260 ca         1 OB2      -0.179000
     16 C14          1.5220     2.4380     1.7200 ca         1 OB2      -0.052000
     17 C15         -0.2120    -0.1800     1.8910 c5         1 OB2       0.211500
     18 O03          0.0010    -1.4820     2.4250 os         1 OB2      -0.404000
     19 C16          0.3660    -2.1500     1.2180 c5         1 OB2       0.181500
     20 C17         -0.8920    -1.8910     0.3210 c5         1 OB2      -0.069400
     21 C18         -1.3080    -0.4500     0.8250 c5         1 OB2      -0.333700
     22 S01         -2.9460    -0.4690     1.7240 s6         1 OB2       1.195100
     23 O04         -3.1020    -1.6620     2.5650 o          1 OB2      -0.530500
     24 O05         -3.2770     0.8610     2.2450 o          1 OB2      -0.530500
     25 N01         -3.8770    -0.7220     0.2760 nh         1 OB2      -0.776300
     26 C19         -4.6790    -1.9570     0.1950 c3         1 OB2       0.203100
     27 C20         -3.7830     0.1560    -0.8230 ca         1 OB2       0.221000
     28 C21         -4.0690     1.5310    -0.7000 ca         1 OB2      -0.094000
     29 C22         -3.9620     2.3870    -1.8110 ca         1 OB2      -0.106000
     30 C23         -3.5720     1.8750    -3.0590 ca         1 OB2      -0.098000
     31 C24         -3.2950     0.5050    -3.1950 ca         1 OB2      -0.106000
     32 C25         -3.4040    -0.3480    -2.0830 ca         1 OB2      -0.094000
     33 H1           3.9980    -0.2700     0.7800 ha         1 OB2       0.118500
     34 H2           5.9530    -1.0430    -0.5460 ha         1 OB2       0.122500
     35 H3           5.6280    -3.6830    -2.9440 ho         1 OB2       0.466000
     36 H4           3.4580    -3.9470    -2.5400 ha         1 OB2       0.122500
     37 H5           1.5030    -3.1760    -1.2310 ha         1 OB2       0.118500
     38 H6           2.2910     0.8750    -1.2230 ha         1 OB2       0.119000
     39 H7           3.1980     3.1180    -1.7300 ha         1 OB2       0.123000
     40 H8           3.5140     5.1920    -0.9900 ho         1 OB2       0.466000
     41 H9           1.9570     4.5110     2.1620 ha         1 OB2       0.123000
     42 H10          1.0640     2.2620     2.6900 ha         1 OB2       0.119000
     43 H11         -0.4410     0.5680     2.6650 h1         1 OB2       0.118700
     44 H12          0.6640    -3.1970     1.3700 h1         1 OB2       0.104700
     45 H13         -0.6520    -1.9060    -0.7480 hc         1 OB2       0.065200
     46 H14         -1.6610    -2.6530     0.4890 hc         1 OB2       0.065200
     47 H15         -1.3460     0.3200     0.0490 h1         1 OB2       0.115700
     48 H16         -5.3260    -2.0590     1.0760 h1         1 OB2       0.052700
     49 H17         -5.3280    -1.9380    -0.6910 h1         1 OB2       0.052700
     50 H18         -4.0300    -2.8400     0.1250 h1         1 OB2       0.052700
     51 H19         -4.3930     1.9400     0.2520 ha         1 OB2       0.124500
     52 H20         -4.1870     3.4460    -1.7040 ha         1 OB2       0.119500
     53 H21         -3.4890     2.5370    -3.9180 ha         1 OB2       0.117000
     54 H22         -2.9940     0.1040    -4.1610 ha         1 OB2       0.119500
     55 H23         -3.1790    -1.4050    -2.1950 ha         1 OB2       0.124500
@<TRIPOS>BOND
     1     1     2 ar  
     2     1     7 ar  
     3     1    33 1   
     4     2     3 ar  
     5     2    34 1   
     6     3     4 1   
     7     3     5 ar  
     8     4    35 1   
     9     5     6 ar  
    10     5    36 1   
    11     6     7 ar  
    12     6    37 1   
    13     7     8 1   
    14     8     9 2   
    15     8    19 1   
    16     9    10 1   
    17     9    17 1   
    18    10    11 ar  
    19    10    16 ar  
    20    11    12 ar  
    21    11    38 1   
    22    12    13 ar  
    23    12    39 1   
    24    13    14 1   
    25    13    15 ar  
    26    14    40 1   
    27    15    16 ar  
    28    15    41 1   
    29    16    42 1   
    30    17    18 1   
    31    17    21 1   
    32    17    43 1   
    33    18    19 1   
    34    19    20 1   
    35    19    44 1   
    36    20    21 1   
    37    20    45 1   
    38    20    46 1   
    39    21    22 1   
    40    21    47 1   
    41    22    23 2   
    42    22    24 2   
    43    22    25 1   
    44    25    26 1   
    45    25    27 1   
    46    26    48 1   
    47    26    49 1   
    48    26    50 1   
    49    27    28 ar  
    50    27    32 ar  
    51    28    29 ar  
    52    28    51 1   
    53    29    30 ar  
    54    29    52 1   
    55    30    31 ar  
    56    30    53 1   
    57    31    32 ar  
    58    31    54 1   
    59    32    55 1   
@<TRIPOS>SUBSTRUCTURE
     1 OB2         1 TEMP              0 ****  ****    0 ROOT
