@<TRIPOS>MOLECULE
OB2
   55    59     1     0     0
SMALL
abcg2


@<TRIPOS>ATOM
      1 C01          3.9670    -1.0540    -0.0790 ca         1 OB2      -0.056500
      2 C02          5.0450    -1.4970    -0.8200 ca         1 OB2      -0.179000
      3 C03          4.9300    -2.6440    -1.6070 ca         1 OB2       0.146100
      4 O01          6.0070    -3.0290    -2.3150 oh         1 OB2      -0.530100
      5 C04          3.7250    -3.3400    -1.6230 ca         1 OB2      -0.179000
      6 C05          2.6530    -2.8880    -0.8680 ca         1 OB2      -0.056500
      7 C06          2.7420    -1.7300    -0.0930 ca         1 OB2      -0.072800
      8 C07          1.6090    -1.2830     0.7040 ce         1 OB2      -0.074400
      9 C08          1.2290    -0.0630     1.1200 cf         1 OB2      -0.070400
     10 C09          1.7060     1.2800     0.7990 ca         1 OB2      -0.082800
     11 C10          2.0790     1.6330    -0.4990 ca         1 OB2      -0.052000
     12 C11          2.5040     2.9140    -0.8030 ca         1 OB2      -0.179000
     13 C12          2.5640     3.8850     0.1950 ca         1 OB2       0.148100
     14 O02          2.9700     5.1460    -0.0410 oh         1 OB2      -0.530100
     15 C13          2.1830     3.5550     1.4940 ca         1 OB2      -0.179000
     16 C14          1.7550     2.2720     1.7820 ca         1 OB2      -0.052000
     17 C15         -0.0650    -0.3030     1.8810 c5         1 OB2       0.211500
     18 O03          0.1030    -1.6000     2.3980 os         1 OB2      -0.404000
     19 C16          0.5010    -2.2110     1.1830 c5         1 OB2       0.181500
     20 C17         -0.7370    -1.9490     0.2850 c5         1 OB2      -0.069400
     21 C18         -1.1150    -0.5340     0.7510 c5         1 OB2      -0.333700
     22 S01         -2.7790    -0.4170     1.4040 s6         1 OB2       1.195100
     23 O04         -3.0030    -1.4530     2.4010 o          1 OB2      -0.530500
     24 O05         -2.9760     0.9720     1.8020 o          1 OB2      -0.530500
     25 N01         -3.7130    -0.8120     0.0810 nh         1 OB2      -0.776300
     26 C19         -4.9120    -1.6220     0.3070 c3         1 OB2       0.203100
     27 C20         -3.7940     0.1820    -0.9420 ca         1 OB2       0.221000
     28 C21         -4.6760     1.2540    -0.8390 ca         1 OB2      -0.094000
     29 C22         -4.7520     2.1830    -1.8650 ca         1 OB2      -0.106000
     30 C23         -3.9440     2.0540    -2.9880 ca         1 OB2      -0.098000
     31 C24         -3.0640     0.9850    -3.0890 ca         1 OB2      -0.106000
     32 C25         -2.9940     0.0460    -2.0690 ca         1 OB2      -0.094000
     33 H1           4.0870    -0.1720     0.5360 ha         1 OB2       0.118500
     34 H2           5.9860    -0.9620    -0.7840 ha         1 OB2       0.122500
     35 H3           5.8210    -3.8410    -2.7990 ho         1 OB2       0.466000
     36 H4           3.6180    -4.2370    -2.2210 ha         1 OB2       0.122500
     37 H5           1.7300    -3.4530    -0.9010 ha         1 OB2       0.118500
     38 H6           2.0250     0.8970    -1.2920 ha         1 OB2       0.119000
     39 H7           2.7800     3.1610    -1.8220 ha         1 OB2       0.123000
     40 H8           3.2020     5.2580    -0.9690 ho         1 OB2       0.466000
     41 H9           2.2220     4.3060     2.2740 ha         1 OB2       0.123000
     42 H10          1.4660     2.0350     2.7990 ha         1 OB2       0.119000
     43 H11         -0.3290     0.4230     2.6490 h1         1 OB2       0.118700
     44 H12          0.7580    -3.2590     1.3290 h1         1 OB2       0.104700
     45 H13         -0.5130    -1.9900    -0.7790 hc         1 OB2       0.065200
     46 H14         -1.5180    -2.6820     0.4870 hc         1 OB2       0.065200
     47 H15         -1.0460     0.2300    -0.0250 h1         1 OB2       0.115700
     48 H16         -5.7120    -1.0770     0.8110 h1         1 OB2       0.052700
     49 H17         -5.2710    -1.9460    -0.6660 h1         1 OB2       0.052700
     50 H18         -4.6650    -2.5080     0.8850 h1         1 OB2       0.052700
     51 H19         -5.3050     1.3600     0.0360 ha         1 OB2       0.124500
     52 H20         -5.4400     3.0150    -1.7850 ha         1 OB2       0.119500
     53 H21         -4.0040     2.7830    -3.7850 ha         1 OB2       0.117000
     54 H22         -2.4370     0.8760    -3.9640 ha         1 OB2       0.119500
     55 H23         -2.3220    -0.8000    -2.1480 ha         1 OB2       0.124500
@<TRIPOS>BOND
     1     1     2 ar  
     2     1     7 ar  
     3     1    33 1   
     4     2     3 ar  
     5     2    34 1   
     6     3     4 1   
     7     3     5 ar  
     8     4    35 1   
     9     5     6 ar  
    10     5    36 1   
    11     6     7 ar  
    12     6    37 1   
    13     7     8 1   
    14     8     9 2   
    15     8    19 1   
    16     9    10 1   
    17     9    17 1   
    18    10    11 ar  
    19    10    16 ar  
    20    11    12 ar  
    21    11    38 1   
    22    12    13 ar  
    23    12    39 1   
    24    13    14 1   
    25    13    15 ar  
    26    14    40 1   
    27    15    16 ar  
    28    15    41 1   
    29    16    42 1   
    30    17    18 1   
    31    17    21 1   
    32    17    43 1   
    33    18    19 1   
    34    19    20 1   
    35    19    44 1   
    36    20    21 1   
    37    20    45 1   
    38    20    46 1   
    39    21    22 1   
    40    21    47 1   
    41    22    23 2   
    42    22    24 2   
    43    22    25 1   
    44    25    26 1   
    45    25    27 1   
    46    26    48 1   
    47    26    49 1   
    48    26    50 1   
    49    27    28 ar  
    50    27    32 ar  
    51    28    29 ar  
    52    28    51 1   
    53    29    30 ar  
    54    29    52 1   
    55    30    31 ar  
    56    30    53 1   
    57    31    32 ar  
    58    31    54 1   
    59    32    55 1   
@<TRIPOS>SUBSTRUCTURE
     1 OB2         1 TEMP              0 ****  ****    0 ROOT
