@<TRIPOS>MOLECULE
OB3
   55    59     1     0     0
SMALL
No Charge or Current Charge


@<TRIPOS>ATOM
      1 C01         -2.1830     3.7490    -1.6220 ca         1 OB3      -0.179500
      2 C02         -2.4830     4.1270    -0.3030 ca         1 OB3       0.148100
      3 C03         -2.3850     3.1890     0.7340 ca         1 OB3      -0.179500
      4 C04         -1.9900     1.8690     0.4560 ca         1 OB3      -0.051500
      5 C05         -1.6950     1.4800    -0.8650 ca         1 OB3      -0.081800
      6 C06         -1.7870     2.4280    -1.9020 ca         1 OB3      -0.051500
      7 O01         -2.8670     5.4030    -0.0240 oh         1 OB3      -0.532100
      8 C07         -1.2630     0.0870    -1.1540 ce         1 OB3      -0.069400
      9 C08         -1.7460    -1.1070    -0.6910 cf         1 OB3      -0.073400
     10 C09         -0.7920    -2.1550    -1.3090 c5         1 OB3       0.181500
     11 C10         -2.9150    -1.4610     0.1410 ca         1 OB3      -0.072800
     12 C11         -0.0420    -0.2580    -2.0200 c5         1 OB3       0.213500
     13 C12         -4.0540    -0.6310     0.1750 ca         1 OB3      -0.056500
     14 C13         -5.1640    -0.9760     0.9660 ca         1 OB3      -0.178500
     15 C14         -5.1490    -2.1540     1.7240 ca         1 OB3       0.146100
     16 C15         -4.0260    -2.9930     1.6910 ca         1 OB3      -0.178500
     17 C16         -2.9140    -2.6500     0.9010 ca         1 OB3      -0.056500
     18 O02         -6.2300    -2.4800     2.4860 oh         1 OB3      -0.530100
     19 C17          1.0360    -0.6360    -0.9620 c5         1 OB3      -0.346700
     20 C18          0.5340    -2.0630    -0.4940 c5         1 OB3      -0.070400
     21 S01          2.6520    -0.7430    -1.8900 s6         1 OB3       1.233100
     22 O03         -0.4120    -1.5360    -2.5350 os         1 OB3      -0.406000
     23 N01          3.5980    -1.0460    -0.4650 nh         1 OB3      -0.815300
     24 O04          2.7270    -1.9420    -2.7330 o          1 OB3      -0.528500
     25 O05          3.0430     0.5670    -2.4180 o          1 OB3      -0.528500
     26 C19          3.6060    -0.1460     0.6310 ca         1 OB3       0.266000
     27 C20          4.5040    -2.2070    -0.5000 c3         1 OB3       0.226100
     28 C21          3.2380    -0.5650     1.9400 ca         1 OB3       0.119000
     29 C22          3.2500     0.3480     3.0110 ca         1 OB3      -0.102000
     30 C23          3.6370     1.6800     2.8040 ca         1 OB3      -0.092000
     31 C24          4.0230     2.1010     1.5230 ca         1 OB3      -0.101000
     32 C25          4.0120     1.1940     0.4490 ca         1 OB3      -0.075000
     33 Cl1          2.7430    -2.2270     2.2890 cl         1 OB3      -0.199000
     34 H1          -2.2540     4.4690    -2.4330 ha         1 OB3       0.123000
     35 H2          -2.6140     3.4830     1.7550 ha         1 OB3       0.123000
     36 H3          -1.9080     1.1480     1.2670 ha         1 OB3       0.119500
     37 H4          -1.5610     2.1420    -2.9270 ha         1 OB3       0.119500
     38 H5          -2.8790     5.9140    -0.8620 ho         1 OB3       0.467000
     39 H6          -1.2080    -3.1620    -1.4530 h1         1 OB3       0.103700
     40 H7           0.2310     0.4690    -2.7990 h1         1 OB3       0.116700
     41 H8          -4.0910     0.2760    -0.4220 ha         1 OB3       0.118500
     42 H9          -6.0380    -0.3290     0.9850 ha         1 OB3       0.122500
     43 H10         -4.0040    -3.9110     2.2750 ha         1 OB3       0.122500
     44 H11         -2.0480    -3.3080     0.8920 ha         1 OB3       0.118500
     45 H12         -6.0450    -3.3290     2.9410 ho         1 OB3       0.466000
     46 H13          1.1370     0.1090    -0.1680 h1         1 OB3       0.117700
     47 H14          0.3510    -2.1090     0.5850 hc         1 OB3       0.062200
     48 H15          1.2210    -2.8790    -0.7450 hc         1 OB3       0.062200
     49 H16          5.1430    -2.1770    -1.3930 h1         1 OB3       0.049033
     50 H17          5.1600    -2.2130     0.3800 h1         1 OB3       0.049033
     51 H18          3.9310    -3.1440    -0.5030 h1         1 OB3       0.049033
     52 H19          2.9590     0.0170     4.0050 ha         1 OB3       0.132000
     53 H20          3.6470     2.3820     3.6350 ha         1 OB3       0.122000
     54 H21          4.3380     3.1300     1.3600 ha         1 OB3       0.125000
     55 H22          4.3410     1.5360    -0.5260 ha         1 OB3       0.131000
@<TRIPOS>BOND
     1     1     2 ar  
     2     1     6 ar  
     3     1    34 1   
     4     2     3 ar  
     5     2     7 1   
     6     3     4 ar  
     7     3    35 1   
     8     4     5 ar  
     9     4    36 1   
    10     5     6 ar  
    11     5     8 1   
    12     6    37 1   
    13     7    38 1   
    14     8     9 2   
    15     8    12 1   
    16     9    10 1   
    17     9    11 1   
    18    10    20 1   
    19    10    22 1   
    20    10    39 1   
    21    11    13 ar  
    22    11    17 ar  
    23    12    19 1   
    24    12    22 1   
    25    12    40 1   
    26    13    14 ar  
    27    13    41 1   
    28    14    15 ar  
    29    14    42 1   
    30    15    16 ar  
    31    15    18 1   
    32    16    17 ar  
    33    16    43 1   
    34    17    44 1   
    35    18    45 1   
    36    19    20 1   
    37    19    21 1   
    38    19    46 1   
    39    20    47 1   
    40    20    48 1   
    41    21    23 1   
    42    21    24 2   
    43    21    25 2   
    44    23    26 1   
    45    23    27 1   
    46    26    28 ar  
    47    26    32 ar  
    48    27    49 1   
    49    27    50 1   
    50    27    51 1   
    51    28    29 ar  
    52    28    33 1   
    53    29    30 ar  
    54    29    52 1   
    55    30    31 ar  
    56    30    53 1   
    57    31    32 ar  
    58    31    54 1   
    59    32    55 1   
@<TRIPOS>SUBSTRUCTURE
     1 OB3         1 TEMP              0 ****  ****    0 ROOT
