@<TRIPOS>MOLECULE
OB3
   55    59     1     0     0
SMALL
abcg2


@<TRIPOS>ATOM
      1 C01         -2.2480     3.7120    -1.2960 ca         1 OB3      -0.179500
      2 C02         -2.6290     3.9670     0.0190 ca         1 OB3       0.148100
      3 C03         -2.6460     2.9220     0.9430 ca         1 OB3      -0.179500
      4 C04         -2.2960     1.6450     0.5480 ca         1 OB3      -0.051500
      5 C05         -1.9240     1.3660    -0.7710 ca         1 OB3      -0.081800
      6 C06         -1.8950     2.4270    -1.6760 ca         1 OB3      -0.051500
      7 O01         -2.9780     5.1930     0.4510 oh         1 OB3      -0.532100
      8 C07         -1.5220     0.0240    -1.1850 ce         1 OB3      -0.069400
      9 C08         -1.9690    -1.2000    -0.8530 cf         1 OB3      -0.073400
     10 C09         -0.9130    -2.1510    -1.3940 c5         1 OB3       0.181500
     11 C10         -3.1230    -1.6350    -0.0790 ca         1 OB3      -0.072800
     12 C11         -0.2410    -0.2350    -1.9590 c5         1 OB3       0.213500
     13 C12         -4.3130    -0.8970    -0.0510 ca         1 OB3      -0.056500
     14 C13         -5.4090    -1.3240     0.6720 ca         1 OB3      -0.178500
     15 C14         -5.3480    -2.5140     1.3990 ca         1 OB3       0.146100
     16 C15         -4.1810    -3.2710     1.3690 ca         1 OB3      -0.178500
     17 C16         -3.0910    -2.8350     0.6320 ca         1 OB3      -0.056500
     18 O02         -6.4400    -2.8800     2.0950 oh         1 OB3      -0.530100
     19 C17          0.7920    -0.6010    -0.8480 c5         1 OB3      -0.346700
     20 C18          0.3330    -2.0210    -0.4790 c5         1 OB3      -0.070400
     21 S01          2.4690    -0.5090    -1.4790 s6         1 OB3       1.233100
     22 O03         -0.4780    -1.4820    -2.5650 os         1 OB3      -0.406000
     23 N01          3.4480    -0.8990    -0.2070 nh         1 OB3      -0.815300
     24 O04          2.6470    -1.5210    -2.5080 o          1 OB3      -0.528500
     25 O05          2.7070     0.8900    -1.8020 o          1 OB3      -0.528500
     26 C19          3.9500     0.1300     0.6240 ca         1 OB3       0.266000
     27 C20          3.9750    -2.2460    -0.0150 c3         1 OB3       0.226100
     28 C21          3.4270     0.3380     1.8990 ca         1 OB3       0.119000
     29 C22          3.9490     1.3100     2.7380 ca         1 OB3      -0.102000
     30 C23          5.0070     2.0910     2.3000 ca         1 OB3      -0.092000
     31 C24          5.5440     1.8950     1.0340 ca         1 OB3      -0.101000
     32 C25          5.0180     0.9170     0.2060 ca         1 OB3      -0.075000
     33 CL1          2.1110    -0.6340     2.4570 cl         1 OB3      -0.199000
     34 H1          -2.2250     4.5130    -2.0250 ha         1 OB3       0.123000
     35 H2          -2.9220     3.1190     1.9710 ha         1 OB3       0.123000
     36 H3          -2.2960     0.8520     1.2840 ha         1 OB3       0.119500
     37 H4          -1.6060     2.2520    -2.7050 ha         1 OB3       0.119500
     38 H5          -2.9130     5.8350    -0.2650 ho         1 OB3       0.467000
     39 H6          -1.2270    -3.1710    -1.6100 h1         1 OB3       0.103700
     40 H7           0.0670     0.5250    -2.6760 h1         1 OB3       0.116700
     41 H8          -4.3890     0.0200    -0.6190 ha         1 OB3       0.118500
     42 H9          -6.3210    -0.7410     0.6710 ha         1 OB3       0.122500
     43 H10         -4.1160    -4.2020     1.9200 ha         1 OB3       0.122500
     44 H11         -2.1970    -3.4470     0.6290 ha         1 OB3       0.118500
     45 H12         -6.2870    -3.7170     2.5480 ho         1 OB3       0.466000
     46 H13          0.7630     0.1020    -0.0140 h1         1 OB3       0.117700
     47 H14          0.1020    -2.1230     0.5790 hc         1 OB3       0.062200
     48 H15          1.0650    -2.7890    -0.7310 hc         1 OB3       0.062200
     49 H16          5.0410    -2.2780    -0.2400 h1         1 OB3       0.049033
     50 H17          3.8170    -2.5630     1.0150 h1         1 OB3       0.049033
     51 H18          3.4700    -2.9550    -0.6630 h1         1 OB3       0.049033
     52 H19          3.5310     1.4560     3.7250 ha         1 OB3       0.132000
     53 H20          5.4140     2.8500     2.9540 ha         1 OB3       0.122000
     54 H21          6.3730     2.5000     0.6940 ha         1 OB3       0.125000
     55 H22          5.4380     0.7500    -0.7760 ha         1 OB3       0.131000
@<TRIPOS>BOND
     1     1     2 ar  
     2     1     6 ar  
     3     1    34 1   
     4     2     3 ar  
     5     2     7 1   
     6     3     4 ar  
     7     3    35 1   
     8     4     5 ar  
     9     4    36 1   
    10     5     6 ar  
    11     5     8 1   
    12     6    37 1   
    13     7    38 1   
    14     8     9 2   
    15     8    12 1   
    16     9    10 1   
    17     9    11 1   
    18    10    20 1   
    19    10    22 1   
    20    10    39 1   
    21    11    13 ar  
    22    11    17 ar  
    23    12    19 1   
    24    12    22 1   
    25    12    40 1   
    26    13    14 ar  
    27    13    41 1   
    28    14    15 ar  
    29    14    42 1   
    30    15    16 ar  
    31    15    18 1   
    32    16    17 ar  
    33    16    43 1   
    34    17    44 1   
    35    18    45 1   
    36    19    20 1   
    37    19    21 1   
    38    19    46 1   
    39    20    47 1   
    40    20    48 1   
    41    21    23 1   
    42    21    24 2   
    43    21    25 2   
    44    23    26 1   
    45    23    27 1   
    46    26    28 ar  
    47    26    32 ar  
    48    27    49 1   
    49    27    50 1   
    50    27    51 1   
    51    28    29 ar  
    52    28    33 1   
    53    29    30 ar  
    54    29    52 1   
    55    30    31 ar  
    56    30    53 1   
    57    31    32 ar  
    58    31    54 1   
    59    32    55 1   
@<TRIPOS>SUBSTRUCTURE
     1 OB3         1 TEMP              0 ****  ****    0 ROOT
