@<TRIPOS>MOLECULE
OB4
   62    66     1     0     0
SMALL
No Charge or Current Charge


@<TRIPOS>ATOM
      1 C01          2.7080    -2.5780    -2.8920 ca         1 OB4      -0.179500
      2 C02          2.8980    -3.4850    -1.8400 ca         1 OB4       0.147100
      3 C03          2.6760    -3.0790    -0.5140 ca         1 OB4      -0.179500
      4 C04          2.2640    -1.7620    -0.2440 ca         1 OB4      -0.052500
      5 C05          2.0790    -0.8450    -1.2960 ca         1 OB4      -0.081800
      6 C06          2.2960    -1.2610    -2.6230 ca         1 OB4      -0.052500
      7 O01          3.2980    -4.7590    -2.1120 oh         1 OB4      -0.531100
      8 C07          1.6290     0.5430    -1.0060 ce         1 OB4      -0.071400
      9 C08          2.0290     1.4210    -0.0350 cf         1 OB4      -0.074400
     10 C09          1.1050     2.6440    -0.2410 c5         1 OB4       0.181500
     11 C10          3.1060     1.3770     0.9760 ca         1 OB4      -0.071800
     12 C11          0.4810     1.2350    -1.7550 c5         1 OB4       0.216500
     13 C12          4.2640     0.6000     0.7630 ca         1 OB4      -0.057000
     14 C13          5.2880     0.5640     1.7260 ca         1 OB4      -0.178500
     15 C14          5.1660     1.3110     2.9080 ca         1 OB4       0.145100
     16 C15          4.0240     2.0940     3.1250 ca         1 OB4      -0.178500
     17 C16          2.9990     2.1310     2.1630 ca         1 OB4      -0.057000
     18 O02          6.1530     1.2830     3.8460 oh         1 OB4      -0.531100
     19 C17         -0.6950     1.1370    -0.7390 c5         1 OB4      -0.349700
     20 C18         -0.2910     2.2380     0.3240 c5         1 OB4      -0.072400
     21 S01         -2.2390     1.6090    -1.6730 s6         1 OB4       1.234100
     22 O03          0.8570     2.6070    -1.6440 os         1 OB4      -0.405000
     23 N01         -3.2810     1.3600    -0.3020 nh         1 OB4      -0.817300
     24 O04         -2.2660     3.0360    -2.0120 o          1 OB4      -0.533000
     25 O05         -2.5740     0.5950    -2.6780 o          1 OB4      -0.533000
     26 C19         -3.3670     0.0980     0.3200 ca         1 OB4       0.203000
     27 C20         -4.0240     2.5150     0.2290 c3         1 OB4       0.245800
     28 C21         -2.9570    -0.0540     1.6590 ca         1 OB4      -0.057000
     29 C22         -3.0320    -1.3070     2.2940 ca         1 OB4      -0.171500
     30 C23         -3.5240    -2.4240     1.6030 ca         1 OB4       0.154100
     31 C24         -3.9490    -2.2800     0.2650 ca         1 OB4      -0.171500
     32 C25         -3.8710    -1.0240    -0.3670 ca         1 OB4      -0.057000
     33 C26         -5.3670     2.7410    -0.4850 c3         1 OB4      -0.115100
     34 O06         -3.5740    -3.6280     2.2750 os         1 OB4      -0.339100
     35 C27         -4.0580    -4.8330     1.6550 c3         1 OB4       0.146900
     36 H1           2.8800    -2.8940    -3.9180 ha         1 OB4       0.123000
     37 H2           2.8160    -3.7760     0.3080 ha         1 OB4       0.123000
     38 H3           2.0840    -1.4540     0.7840 ha         1 OB4       0.120000
     39 H4           2.1560    -0.5630    -3.4460 ha         1 OB4       0.120000
     40 H5           3.3780    -5.2450    -1.2640 ho         1 OB4       0.465000
     41 H6           1.5040     3.6120     0.0930 h1         1 OB4       0.104700
     42 H7           0.2990     0.9080    -2.7900 h1         1 OB4       0.117700
     43 H8           4.3820     0.0320    -0.1560 ha         1 OB4       0.118500
     44 H9           6.1730    -0.0400     1.5440 ha         1 OB4       0.122000
     45 H10          3.9300     2.6740     4.0400 ha         1 OB4       0.122000
     46 H11          2.1180     2.7390     2.3520 ha         1 OB4       0.118500
     47 H12          6.8670     0.6900     3.5270 ho         1 OB4       0.466000
     48 H13         -0.8310     0.1290    -0.3370 h1         1 OB4       0.114700
     49 H14         -0.2250     1.8350     1.3410 hc         1 OB4       0.061700
     50 H15         -0.9720     3.0960     0.3540 hc         1 OB4       0.061700
     51 H16         -4.2300     2.3610     1.2960 h1         1 OB4       0.055700
     52 H17         -3.4210     3.4310     0.1690 h1         1 OB4       0.055700
     53 H18         -2.5670     0.8020     2.2030 ha         1 OB4       0.124500
     54 H19         -2.7050    -1.4120     3.3250 ha         1 OB4       0.127500
     55 H20         -4.3430    -3.1210    -0.2980 ha         1 OB4       0.127500
     56 H21         -4.2170    -0.9210    -1.3910 ha         1 OB4       0.124500
     57 H22         -5.2110     2.9520    -1.5500 hc         1 OB4       0.046033
     58 H23         -6.0030     1.8530    -0.3960 hc         1 OB4       0.046033
     59 H24         -5.8950     3.5910    -0.0390 hc         1 OB4       0.046033
     60 H25         -5.1030    -4.7170     1.3380 h1         1 OB4       0.043700
     61 H26         -3.4500    -5.0930     0.7790 h1         1 OB4       0.043700
     62 H27         -4.0100    -5.6700     2.3630 h1         1 OB4       0.043700
@<TRIPOS>BOND
     1     1     2 ar  
     2     1     6 ar  
     3     1    36 1   
     4     2     3 ar  
     5     2     7 1   
     6     3     4 ar  
     7     3    37 1   
     8     4     5 ar  
     9     4    38 1   
    10     5     6 ar  
    11     5     8 1   
    12     6    39 1   
    13     7    40 1   
    14     8     9 2   
    15     8    12 1   
    16     9    10 1   
    17     9    11 1   
    18    10    20 1   
    19    10    22 1   
    20    10    41 1   
    21    11    13 ar  
    22    11    17 ar  
    23    12    19 1   
    24    12    22 1   
    25    12    42 1   
    26    13    14 ar  
    27    13    43 1   
    28    14    15 ar  
    29    14    44 1   
    30    15    16 ar  
    31    15    18 1   
    32    16    17 ar  
    33    16    45 1   
    34    17    46 1   
    35    18    47 1   
    36    19    20 1   
    37    19    21 1   
    38    19    48 1   
    39    20    49 1   
    40    20    50 1   
    41    21    23 1   
    42    21    24 2   
    43    21    25 2   
    44    23    26 1   
    45    23    27 1   
    46    26    28 ar  
    47    26    32 ar  
    48    27    33 1   
    49    27    51 1   
    50    27    52 1   
    51    28    29 ar  
    52    28    53 1   
    53    29    30 ar  
    54    29    54 1   
    55    30    31 ar  
    56    30    34 1   
    57    31    32 ar  
    58    31    55 1   
    59    32    56 1   
    60    33    57 1   
    61    33    58 1   
    62    33    59 1   
    63    34    35 1   
    64    35    60 1   
    65    35    61 1   
    66    35    62 1   
@<TRIPOS>SUBSTRUCTURE
     1 OB4         1 TEMP              0 ****  ****    0 ROOT
