@<TRIPOS>MOLECULE
OB4
   62    66     1     0     0
SMALL
bcc


@<TRIPOS>ATOM
      1 C01          2.7730    -2.5740    -2.7620 ca         1 OB4      -0.197500
      2 C02          2.9880    -3.4270    -1.6810 ca         1 OB4       0.147100
      3 C03          2.8270    -2.9420    -0.3840 ca         1 OB4      -0.197500
      4 C04          2.4670    -1.6220    -0.1780 ca         1 OB4      -0.070500
      5 C05          2.2600    -0.7500    -1.2470 ca         1 OB4      -0.081800
      6 C06          2.4060    -1.2580    -2.5400 ca         1 OB4      -0.070500
      7 O01          3.3390    -4.6990    -1.9450 oh         1 OB4      -0.492100
      8 C07          1.8570     0.6380    -1.0310 ce         1 OB4      -0.071400
      9 C08          2.2430     1.5610    -0.1340 cf         1 OB4      -0.074400
     10 C09          1.2160     2.6770    -0.2690 c5         1 OB4       0.158300
     11 C10          3.3100     1.5730     0.8570 ca         1 OB4      -0.071800
     12 C11          0.6400     1.2480    -1.7080 c5         1 OB4       0.193300
     13 C12          4.4850     0.8350     0.6910 ca         1 OB4      -0.075000
     14 C13          5.4980     0.8700     1.6310 ca         1 OB4      -0.196500
     15 C14          5.3630     1.6530     2.7780 ca         1 OB4       0.145100
     16 C15          4.2060     2.4080     2.9550 ca         1 OB4      -0.196500
     17 C16          3.2030     2.3690     2.0020 ca         1 OB4      -0.075000
     18 O02          6.3120     1.7180     3.7300 oh         1 OB4      -0.492100
     19 C17         -0.4950     1.0850    -0.6510 c5         1 OB4      -0.238900
     20 C18         -0.1010     2.1640     0.3700 c5         1 OB4      -0.072400
     21 S01         -2.1100     1.3500    -1.3870 s6         1 OB4       1.264900
     22 O03          0.9010     2.6290    -1.6490 os         1 OB4      -0.358600
     23 N01         -3.1610     1.1980    -0.1300 nh         1 OB4      -0.678900
     24 O04         -2.2100     2.7180    -1.8740 o          1 OB4      -0.603800
     25 O05         -2.3050     0.2560    -2.3290 o          1 OB4      -0.603800
     26 C19         -3.4250    -0.1030     0.3770 ca         1 OB4       0.064600
     27 C20         -3.9560     2.3320     0.3520 c3         1 OB4       0.245800
     28 C21         -2.8320    -0.5110     1.5700 ca         1 OB4      -0.075000
     29 C22         -3.0920    -1.7600     2.0980 ca         1 OB4      -0.189500
     30 C23         -3.9550    -2.6360     1.4340 ca         1 OB4       0.154100
     31 C24         -4.5540    -2.2330     0.2420 ca         1 OB4      -0.189500
     32 C25         -4.2880    -0.9730    -0.2760 ca         1 OB4      -0.075000
     33 C26         -5.2770     2.4940    -0.3750 c3         1 OB4      -0.115100
     34 O06         -4.1450    -3.8330     2.0130 os         1 OB4      -0.315900
     35 C27         -4.9940    -4.7680     1.3740 c3         1 OB4       0.123700
     36 H1           2.8930    -2.9430    -3.7720 ha         1 OB4       0.141000
     37 H2           2.9710    -3.5980     0.4670 ha         1 OB4       0.141000
     38 H3           2.3340    -1.2670     0.8360 ha         1 OB4       0.138000
     39 H4           2.2490    -0.6110    -3.3950 ha         1 OB4       0.138000
     40 H5           3.4650    -5.1920    -1.1260 ho         1 OB4       0.426000
     41 H6           1.5220     3.6760     0.0380 h1         1 OB4       0.104700
     42 H7           0.4100     0.9090    -2.7170 h1         1 OB4       0.117700
     43 H8           4.6210     0.2280    -0.1950 ha         1 OB4       0.136500
     44 H9           6.4000     0.2900     1.4690 ha         1 OB4       0.140000
     45 H10          4.0960     3.0250     3.8380 ha         1 OB4       0.140000
     46 H11          2.3160     2.9680     2.1680 ha         1 OB4       0.136500
     47 H12          7.0620     1.1600     3.4970 ho         1 OB4       0.427000
     48 H13         -0.5260     0.0740    -0.2410 h1         1 OB4       0.114700
     49 H14          0.0370     1.7610     1.3720 hc         1 OB4       0.061700
     50 H15         -0.8290     2.9740     0.4340 hc         1 OB4       0.061700
     51 H16         -4.1240     2.1600     1.4160 h1         1 OB4       0.055700
     52 H17         -3.3650     3.2440     0.2820 h1         1 OB4       0.055700
     53 H18         -2.1590     0.1610     2.0890 ha         1 OB4       0.142500
     54 H19         -2.6270    -2.0680     3.0260 ha         1 OB4       0.145500
     55 H20         -5.2290    -2.8830    -0.2980 ha         1 OB4       0.145500
     56 H21         -4.7600    -0.6720    -1.2010 ha         1 OB4       0.142500
     57 H22         -5.1200     2.7020    -1.4330 hc         1 OB4       0.046033
     58 H23         -5.8930     1.5990    -0.2880 hc         1 OB4       0.046033
     59 H24         -5.8380     3.3260     0.0530 hc         1 OB4       0.046033
     60 H25         -6.0210    -4.4010     1.2980 h1         1 OB4       0.043700
     61 H26         -4.6350    -5.0270     0.3750 h1         1 OB4       0.043700
     62 H27         -4.9890    -5.6620     1.9920 h1         1 OB4       0.043700
@<TRIPOS>BOND
     1     1     2 ar  
     2     1     6 ar  
     3     1    36 1   
     4     2     3 ar  
     5     2     7 1   
     6     3     4 ar  
     7     3    37 1   
     8     4     5 ar  
     9     4    38 1   
    10     5     6 ar  
    11     5     8 1   
    12     6    39 1   
    13     7    40 1   
    14     8     9 2   
    15     8    12 1   
    16     9    10 1   
    17     9    11 1   
    18    10    20 1   
    19    10    22 1   
    20    10    41 1   
    21    11    13 ar  
    22    11    17 ar  
    23    12    19 1   
    24    12    22 1   
    25    12    42 1   
    26    13    14 ar  
    27    13    43 1   
    28    14    15 ar  
    29    14    44 1   
    30    15    16 ar  
    31    15    18 1   
    32    16    17 ar  
    33    16    45 1   
    34    17    46 1   
    35    18    47 1   
    36    19    20 1   
    37    19    21 1   
    38    19    48 1   
    39    20    49 1   
    40    20    50 1   
    41    21    23 1   
    42    21    24 2   
    43    21    25 2   
    44    23    26 1   
    45    23    27 1   
    46    26    28 ar  
    47    26    32 ar  
    48    27    33 1   
    49    27    51 1   
    50    27    52 1   
    51    28    29 ar  
    52    28    53 1   
    53    29    30 ar  
    54    29    54 1   
    55    30    31 ar  
    56    30    34 1   
    57    31    32 ar  
    58    31    55 1   
    59    32    56 1   
    60    33    57 1   
    61    33    58 1   
    62    33    59 1   
    63    34    35 1   
    64    35    60 1   
    65    35    61 1   
    66    35    62 1   
@<TRIPOS>SUBSTRUCTURE
     1 OB4         1 TEMP              0 ****  ****    0 ROOT
