@<TRIPOS>MOLECULE
OB5
   62    66     1     0     0
SMALL
abcg2


@<TRIPOS>ATOM
      1 C01         -5.4170     2.0530     1.5470 ca         1 OB5      -0.180000
      2 C02         -5.4310     1.0640     2.5270 ca         1 OB5       0.146100
      3 C03         -4.4510     0.0710     2.5130 ca         1 OB5      -0.180000
      4 C04         -3.4840     0.0700     1.5250 ca         1 OB5      -0.055500
      5 C05         -3.4620     1.0460     0.5250 ca         1 OB5      -0.077800
      6 C06         -4.4380     2.0420     0.5670 ca         1 OB5      -0.055500
      7 O01         -6.3540     1.0220     3.5050 oh         1 OB5      -0.531100
      8 C07         -2.4290     1.0610    -0.5080 ce         1 OB5      -0.081400
      9 C08         -1.8380     0.0730    -1.2030 cf         1 OB5      -0.063400
     10 C09         -0.6670     0.7500    -1.8960 c5         1 OB5       0.213500
     11 C10         -2.0760    -1.3610    -1.2850 ca         1 OB5      -0.079800
     12 C11         -1.6110     2.3020    -0.8280 c5         1 OB5       0.183500
     13 C12         -3.3450    -1.9180    -1.0920 ca         1 OB5      -0.056000
     14 C13         -3.5590    -3.2790    -1.1880 ca         1 OB5      -0.179000
     15 C14         -2.4970    -4.1360    -1.4830 ca         1 OB5       0.146100
     16 C15         -1.2310    -3.6010    -1.6960 ca         1 OB5      -0.179000
     17 C16         -1.0320    -2.2320    -1.6040 ca         1 OB5      -0.056000
     18 O02         -2.7550    -5.4540    -1.5580 oh         1 OB5      -0.531100
     19 C17         -0.2960     2.1770    -0.0160 c5         1 OB5      -0.071400
     20 C18          0.3670     1.0020    -0.7550 c5         1 OB5      -0.356700
     21 S01          1.9880     1.3720    -1.4230 s6         1 OB5       1.237100
     22 O03         -1.1570     2.0450    -2.1440 os         1 OB5      -0.404000
     23 N01          2.9460     1.6510    -0.1140 nh         1 OB5      -0.818300
     24 O04          2.4420     0.1470    -2.0690 o          1 OB5      -0.531000
     25 O05          1.9100     2.5970    -2.2050 o          1 OB5      -0.531000
     26 C19          3.5440     0.5330     0.5280 ca         1 OB5       0.213000
     27 C20          3.3410     3.0000     0.3060 c3         1 OB5       0.239800
     28 C21          2.9160    -0.0870     1.6040 ca         1 OB5      -0.058500
     29 C22          3.5100    -1.1580     2.2450 ca         1 OB5      -0.169500
     30 C23          4.7580    -1.6230     1.8240 ca         1 OB5       0.153100
     31 C24          5.3960    -1.0000     0.7510 ca         1 OB5      -0.169500
     32 C25          4.7820     0.0670     0.1120 ca         1 OB5      -0.058500
     33 C26          2.9420     3.3140     1.7350 c3         1 OB5      -0.109100
     34 O06          5.2660    -2.6630     2.5050 os         1 OB5      -0.340100
     35 C27          6.5380    -3.1620     2.1380 c3         1 OB5       0.147900
     36 H1          -6.1690     2.8330     1.5460 ha         1 OB5       0.123000
     37 H2          -4.4460    -0.6910     3.2820 ha         1 OB5       0.123000
     38 H3          -2.7230    -0.7000     1.5400 ha         1 OB5       0.120000
     39 H4          -4.4510     2.8200    -0.1870 ha         1 OB5       0.120000
     40 H5          -6.9730     1.7560     3.4180 ho         1 OB5       0.466000
     41 H6          -0.2900     0.2760    -2.8010 h1         1 OB5       0.117700
     42 H7          -2.1090     3.2670    -0.7500 h1         1 OB5       0.102700
     43 H8          -4.1890    -1.2750    -0.8770 ha         1 OB5       0.123500
     44 H9          -4.5520    -3.6850    -1.0420 ha         1 OB5       0.123500
     45 H10         -0.3950    -4.2470    -1.9350 ha         1 OB5       0.123500
     46 H11         -0.0330    -1.8510    -1.7800 ha         1 OB5       0.123500
     47 H12         -1.9540    -5.9420    -1.7770 ho         1 OB5       0.466000
     48 H13          0.2770     3.1030    -0.0820 hc         1 OB5       0.062700
     49 H14         -0.4670     1.9640     1.0380 hc         1 OB5       0.062700
     50 H15          0.5100     0.1210    -0.1260 h1         1 OB5       0.109700
     51 H16          4.4240     3.0930     0.1860 h1         1 OB5       0.059700
     52 H17          2.8910     3.7200    -0.3740 h1         1 OB5       0.059700
     53 H18          1.9540     0.2730     1.9480 ha         1 OB5       0.121000
     54 H19          3.0140    -1.6380     3.0800 ha         1 OB5       0.127500
     55 H20          6.3630    -1.3300     0.3980 ha         1 OB5       0.127500
     56 H21          5.2830     0.5440    -0.7220 ha         1 OB5       0.121000
     57 H22          1.8640     3.2280     1.8750 hc         1 OB5       0.042033
     58 H23          3.4350     2.6560     2.4500 hc         1 OB5       0.042033
     59 H24          3.2320     4.3370     1.9740 hc         1 OB5       0.042033
     60 H25          6.7520    -3.9860     2.8120 h1         1 OB5       0.043367
     61 H26          6.5480    -3.5370     1.1110 h1         1 OB5       0.043367
     62 H27          7.3190    -2.4060     2.2480 h1         1 OB5       0.043367
@<TRIPOS>BOND
     1     1     2 ar  
     2     1     6 ar  
     3     1    36 1   
     4     2     3 ar  
     5     2     7 1   
     6     3     4 ar  
     7     3    37 1   
     8     4     5 ar  
     9     4    38 1   
    10     5     6 ar  
    11     5     8 1   
    12     6    39 1   
    13     7    40 1   
    14     8     9 2   
    15     8    12 1   
    16     9    10 1   
    17     9    11 1   
    18    10    20 1   
    19    10    22 1   
    20    10    41 1   
    21    11    13 ar  
    22    11    17 ar  
    23    12    19 1   
    24    12    22 1   
    25    12    42 1   
    26    13    14 ar  
    27    13    43 1   
    28    14    15 ar  
    29    14    44 1   
    30    15    16 ar  
    31    15    18 1   
    32    16    17 ar  
    33    16    45 1   
    34    17    46 1   
    35    18    47 1   
    36    19    20 1   
    37    19    48 1   
    38    19    49 1   
    39    20    21 1   
    40    20    50 1   
    41    21    23 1   
    42    21    24 2   
    43    21    25 2   
    44    23    26 1   
    45    23    27 1   
    46    26    28 ar  
    47    26    32 ar  
    48    27    33 1   
    49    27    51 1   
    50    27    52 1   
    51    28    29 ar  
    52    28    53 1   
    53    29    30 ar  
    54    29    54 1   
    55    30    31 ar  
    56    30    34 1   
    57    31    32 ar  
    58    31    55 1   
    59    32    56 1   
    60    33    57 1   
    61    33    58 1   
    62    33    59 1   
    63    34    35 1   
    64    35    60 1   
    65    35    61 1   
    66    35    62 1   
@<TRIPOS>SUBSTRUCTURE
     1 OB5         1 TEMP              0 ****  ****    0 ROOT
