@<TRIPOS>MOLECULE
OB5
   62    66     1     0     0
SMALL
No Charge or Current Charge


@<TRIPOS>ATOM
      1 C01         -5.4690     1.5740     1.5800 ca         1 OB5      -0.180000
      2 C02         -5.4310     0.5300     2.5180 ca         1 OB5       0.146100
      3 C03         -4.3570    -0.3700     2.5220 ca         1 OB5      -0.180000
      4 C04         -3.3180    -0.2320     1.5860 ca         1 OB5      -0.055500
      5 C05         -3.3530     0.8070     0.6360 ca         1 OB5      -0.077800
      6 C06         -4.4300     1.7140     0.6420 ca         1 OB5      -0.055500
      7 O01         -6.4330     0.3880     3.4300 oh         1 OB5      -0.531100
      8 C07         -2.2460     0.9590    -0.3470 ce         1 OB5      -0.081400
      9 C08         -1.5780     0.0200    -1.0840 cf         1 OB5      -0.063400
     10 C09         -0.5030     0.8340    -1.8360 c5         1 OB5       0.213500
     11 C10         -1.7670    -1.4340    -1.2650 ca         1 OB5      -0.079800
     12 C11         -1.5630     2.3010    -0.6570 c5         1 OB5       0.183500
     13 C12         -3.0400    -2.0200    -1.1120 ca         1 OB5      -0.056000
     14 C13         -3.2120    -3.4040    -1.2890 ca         1 OB5      -0.179000
     15 C14         -2.1180    -4.2130    -1.6250 ca         1 OB5       0.146100
     16 C15         -0.8480    -3.6400    -1.7880 ca         1 OB5      -0.179000
     17 C16         -0.6730    -2.2550    -1.6120 ca         1 OB5      -0.056000
     18 O02         -2.2970    -5.5530    -1.7940 oh         1 OB5      -0.531100
     19 C17         -0.2050     2.2280     0.1190 c5         1 OB5      -0.071400
     20 C18          0.5670     1.1610    -0.7600 c5         1 OB5      -0.356700
     21 S01          2.0210     1.9130    -1.6590 s6         1 OB5       1.237100
     22 O03         -1.1390     2.0970    -2.0040 os         1 OB5      -0.404000
     23 N01          2.9900     2.0560    -0.2220 nh         1 OB5      -0.818300
     24 O04          2.6650     0.9260    -2.5310 o          1 OB5      -0.531000
     25 O05          1.7300     3.2670    -2.1450 o          1 OB5      -0.531000
     26 C19          3.2940     0.9140     0.5480 ca         1 OB5       0.213000
     27 C20          3.3880     3.4150     0.2040 c3         1 OB5       0.239800
     28 C21          2.7860     0.7920     1.8550 ca         1 OB5      -0.058500
     29 C22          3.0720    -0.3450     2.6320 ca         1 OB5      -0.169500
     30 C23          3.8750    -1.3740     2.1150 ca         1 OB5       0.153100
     31 C24          4.3960    -1.2560     0.8080 ca         1 OB5      -0.169500
     32 C25          4.1050    -0.1160     0.0340 ca         1 OB5      -0.058500
     33 C26          4.6700     3.4720     1.0590 c3         1 OB5      -0.109100
     34 O06          4.1230    -2.4660     2.9200 os         1 OB5      -0.340100
     35 C27          4.9300    -3.5740     2.4830 c3         1 OB5       0.147900
     36 H1          -6.2980     2.2780     1.5700 ha         1 OB5       0.123000
     37 H2          -4.3260    -1.1760     3.2510 ha         1 OB5       0.123000
     38 H3          -2.4830    -0.9290     1.5990 ha         1 OB5       0.120000
     39 H4          -4.4690     2.5220    -0.0860 ha         1 OB5       0.120000
     40 H5          -7.0920     1.1000     3.2800 ho         1 OB5       0.466000
     41 H6          -0.1520     0.4010    -2.7860 h1         1 OB5       0.117700
     42 H7          -2.1640     3.2110    -0.5210 h1         1 OB5       0.102700
     43 H8          -3.9020    -1.4040    -0.8700 ha         1 OB5       0.123500
     44 H9          -4.1980    -3.8470    -1.1690 ha         1 OB5       0.123500
     45 H10          0.0070    -4.2580    -2.0500 ha         1 OB5       0.123500
     46 H11          0.3190    -1.8270    -1.7340 ha         1 OB5       0.123500
     47 H12         -1.4320    -5.9540    -2.0260 ho         1 OB5       0.466000
     48 H13          0.2880     3.2060     0.1510 hc         1 OB5       0.062700
     49 H14         -0.3400     1.9000     1.1560 hc         1 OB5       0.062700
     50 H15          0.9090     0.2750    -0.2180 h1         1 OB5       0.109700
     51 H16          3.5730     4.0450    -0.6770 h1         1 OB5       0.059700
     52 H17          2.5680     3.8790     0.7700 h1         1 OB5       0.059700
     53 H18          2.1580     1.5790     2.2630 ha         1 OB5       0.121000
     54 H19          2.6690    -0.4300     3.6370 ha         1 OB5       0.127500
     55 H20          5.0260    -2.0290     0.3790 ha         1 OB5       0.127500
     56 H21          4.5230    -0.0290    -0.9640 ha         1 OB5       0.121000
     57 H22          4.5300     2.9650     2.0200 hc         1 OB5       0.042033
     58 H23          5.5060     3.0000     0.5300 hc         1 OB5       0.042033
     59 H24          4.9390     4.5150     1.2640 hc         1 OB5       0.042033
     60 H25          4.9960    -4.3310     3.2750 h1         1 OB5       0.043367
     61 H26          4.4930    -4.0480     1.5950 h1         1 OB5       0.043367
     62 H27          5.9490    -3.2440     2.2430 h1         1 OB5       0.043367
@<TRIPOS>BOND
     1     1     2 ar  
     2     1     6 ar  
     3     1    36 1   
     4     2     3 ar  
     5     2     7 1   
     6     3     4 ar  
     7     3    37 1   
     8     4     5 ar  
     9     4    38 1   
    10     5     6 ar  
    11     5     8 1   
    12     6    39 1   
    13     7    40 1   
    14     8     9 2   
    15     8    12 1   
    16     9    10 1   
    17     9    11 1   
    18    10    20 1   
    19    10    22 1   
    20    10    41 1   
    21    11    13 ar  
    22    11    17 ar  
    23    12    19 1   
    24    12    22 1   
    25    12    42 1   
    26    13    14 ar  
    27    13    43 1   
    28    14    15 ar  
    29    14    44 1   
    30    15    16 ar  
    31    15    18 1   
    32    16    17 ar  
    33    16    45 1   
    34    17    46 1   
    35    18    47 1   
    36    19    20 1   
    37    19    48 1   
    38    19    49 1   
    39    20    21 1   
    40    20    50 1   
    41    21    23 1   
    42    21    24 2   
    43    21    25 2   
    44    23    26 1   
    45    23    27 1   
    46    26    28 ar  
    47    26    32 ar  
    48    27    33 1   
    49    27    51 1   
    50    27    52 1   
    51    28    29 ar  
    52    28    53 1   
    53    29    30 ar  
    54    29    54 1   
    55    30    31 ar  
    56    30    34 1   
    57    31    32 ar  
    58    31    55 1   
    59    32    56 1   
    60    33    57 1   
    61    33    58 1   
    62    33    59 1   
    63    34    35 1   
    64    35    60 1   
    65    35    61 1   
    66    35    62 1   
@<TRIPOS>SUBSTRUCTURE
     1 OB5         1 TEMP              0 ****  ****    0 ROOT
