@<TRIPOS>MOLECULE
OB6
   58    62     1     0     0
SMALL
No Charge or Current Charge


@<TRIPOS>ATOM
      1 C01          5.2240    -0.8590    -3.0730 ca         1 OB6       0.146100
      2 C02          5.4400    -0.4350    -1.7530 ca         1 OB6      -0.178500
      3 C03          4.4270    -0.5940    -0.7900 ca         1 OB6      -0.057000
      4 C04          3.1910    -1.1710    -1.1440 ca         1 OB6      -0.073800
      5 C05          2.9870    -1.6030    -2.4690 ca         1 OB6      -0.057000
      6 C06          4.0010    -1.4440    -3.4300 ca         1 OB6      -0.178500
      7 C07          2.1230    -1.3470    -0.1210 ce         1 OB6      -0.074400
      8 O01          6.2000    -0.7090    -4.0120 oh         1 OB6      -0.531100
      9 C08          1.7470    -0.5430     0.9220 cf         1 OB6      -0.069400
     10 C09          0.6120    -1.3340     1.6110 c5         1 OB6       0.217500
     11 C10         -0.6100    -1.1690     0.6680 c5         1 OB6      -0.358700
     12 C11         -0.1760    -2.0770    -0.5530 c5         1 OB6      -0.073400
     13 C12          1.2150    -2.5860    -0.0430 c5         1 OB6       0.182500
     14 C13          2.1480     0.8220     1.3200 ca         1 OB6      -0.083800
     15 C14          2.5390     1.7620     0.3440 ca         1 OB6      -0.051500
     16 C15          2.9080     3.0670     0.7160 ca         1 OB6      -0.179500
     17 C16          2.8850     3.4430     2.0680 ca         1 OB6       0.149100
     18 C17          2.4880     2.5190     3.0440 ca         1 OB6      -0.179500
     19 C18          2.1180     1.2150     2.6740 ca         1 OB6      -0.051500
     20 O02          3.2410     4.7050     2.4380 oh         1 OB6      -0.530100
     21 O03          0.9890    -2.6840     1.3620 os         1 OB6      -0.404000
     22 S01         -2.0850    -1.8700     1.5720 s6         1 OB6       1.235100
     23 N01         -3.1960    -1.4690     0.2980 nh         1 OB6      -0.822300
     24 C19         -3.3750    -0.1350    -0.1040 ca         1 OB6       0.254000
     25 C20         -3.9010    -2.5650    -0.3870 c3         1 OB6       0.246800
     26 C21         -5.2000    -2.9760     0.3250 c3         1 OB6      -0.109100
     27 C22         -3.0130     0.2580    -1.4070 ca         1 OB6      -0.089000
     28 C23         -3.1820     1.5900    -1.8270 ca         1 OB6      -0.099000
     29 C24         -3.7250     2.5380    -0.9460 ca         1 OB6       0.126000
     30 C25         -4.1020     2.1550     0.3510 ca         1 OB6      -0.099000
     31 C26         -3.9300     0.8220     0.7680 ca         1 OB6      -0.089000
     32 Cl1         -3.9380     4.2030    -1.4680 cl         1 OB6      -0.195000
     33 O04         -2.0280    -3.3320     1.6810 o          1 OB6      -0.526000
     34 O05         -2.4270    -1.0450     2.7350 o          1 OB6      -0.526000
     35 H1           6.3870     0.0150    -1.4640 ha         1 OB6       0.123000
     36 H2           4.6050    -0.2730     0.2340 ha         1 OB6       0.118000
     37 H3           2.0420    -2.0560    -2.7590 ha         1 OB6       0.118000
     38 H4           3.8360    -1.7740    -4.4530 ha         1 OB6       0.123000
     39 H5           6.9770    -0.2890    -3.5870 ho         1 OB6       0.467000
     40 H6           0.4520    -1.1250     2.6790 h1         1 OB6       0.116700
     41 H7          -0.8180    -0.1250     0.4200 h1         1 OB6       0.113700
     42 H8          -0.8600    -2.9120    -0.7420 hc         1 OB6       0.059700
     43 H9          -0.0950    -1.5100    -1.4870 hc         1 OB6       0.059700
     44 H10          1.6030    -3.5120    -0.4900 h1         1 OB6       0.105700
     45 H11          2.5430     1.4880    -0.7080 ha         1 OB6       0.119000
     46 H12          3.2070     3.7770    -0.0510 ha         1 OB6       0.124000
     47 H13          2.4690     2.8120     4.0910 ha         1 OB6       0.124000
     48 H14          1.8230     0.5090     3.4470 ha         1 OB6       0.119000
     49 H15          3.4850     5.2070     1.6310 ho         1 OB6       0.466000
     50 H16         -4.1580    -2.2550    -1.4090 h1         1 OB6       0.053200
     51 H17         -3.2520    -3.4440    -0.4940 h1         1 OB6       0.053200
     52 H18         -4.9910    -3.3440     1.3360 hc         1 OB6       0.046367
     53 H19         -5.8830    -2.1220     0.3990 hc         1 OB6       0.046367
     54 H20         -5.7030    -3.7730    -0.2350 hc         1 OB6       0.046367
     55 H21         -2.5850    -0.4710    -2.0890 ha         1 OB6       0.129000
     56 H22         -2.8910     1.8860    -2.8320 ha         1 OB6       0.135000
     57 H23         -4.5310     2.8880     1.0300 ha         1 OB6       0.135000
     58 H24         -4.2410     0.5310     1.7670 ha         1 OB6       0.129000
@<TRIPOS>BOND
     1     1     2 ar  
     2     1     6 ar  
     3     1     8 1   
     4     2     3 ar  
     5     2    35 1   
     6     3     4 ar  
     7     3    36 1   
     8     4     5 ar  
     9     4     7 1   
    10     5     6 ar  
    11     5    37 1   
    12     6    38 1   
    13     7     9 2   
    14     7    13 1   
    15     8    39 1   
    16     9    10 1   
    17     9    14 1   
    18    10    11 1   
    19    10    21 1   
    20    10    40 1   
    21    11    12 1   
    22    11    22 1   
    23    11    41 1   
    24    12    13 1   
    25    12    42 1   
    26    12    43 1   
    27    13    21 1   
    28    13    44 1   
    29    14    15 ar  
    30    14    19 ar  
    31    15    16 ar  
    32    15    45 1   
    33    16    17 ar  
    34    16    46 1   
    35    17    18 ar  
    36    17    20 1   
    37    18    19 ar  
    38    18    47 1   
    39    19    48 1   
    40    20    49 1   
    41    22    23 1   
    42    22    33 2   
    43    22    34 2   
    44    23    24 1   
    45    23    25 1   
    46    24    27 ar  
    47    24    31 ar  
    48    25    26 1   
    49    25    50 1   
    50    25    51 1   
    51    26    52 1   
    52    26    53 1   
    53    26    54 1   
    54    27    28 ar  
    55    27    55 1   
    56    28    29 ar  
    57    28    56 1   
    58    29    30 ar  
    59    29    32 1   
    60    30    31 ar  
    61    30    57 1   
    62    31    58 1   
@<TRIPOS>SUBSTRUCTURE
     1 OB6         1 TEMP              0 ****  ****    0 ROOT
