@<TRIPOS>MOLECULE
OB6
   58    62     1     0     0
SMALL
abcg2


@<TRIPOS>ATOM
      1 C01          5.2430    -1.0410    -3.0970 ca         1 OB6       0.146100
      2 C02          5.4420    -0.4550    -1.8470 ca         1 OB6      -0.178500
      3 C03          4.4780    -0.5710    -0.8630 ca         1 OB6      -0.057000
      4 C04          3.2880    -1.2690    -1.0880 ca         1 OB6      -0.073800
      5 C05          3.1160    -1.8660    -2.3410 ca         1 OB6      -0.057000
      6 C06          4.0700    -1.7510    -3.3370 ca         1 OB6      -0.178500
      7 C07          2.2770    -1.4210    -0.0510 ce         1 OB6      -0.074400
      8 O01          6.1470    -0.9600    -4.0900 oh         1 OB6      -0.531100
      9 C08          1.9160    -0.6300     0.9740 cf         1 OB6      -0.069400
     10 C09          0.7630    -1.3660     1.6360 c5         1 OB6       0.217500
     11 C10         -0.4380    -1.1170     0.6710 c5         1 OB6      -0.358700
     12 C11         -0.0740    -2.0530    -0.4940 c5         1 OB6      -0.073400
     13 C12          1.2970    -2.5830    -0.0010 c5         1 OB6       0.182500
     14 C13          2.2860     0.7350     1.3390 ca         1 OB6      -0.083800
     15 C14          2.4500     1.7280     0.3720 ca         1 OB6      -0.051500
     16 C15          2.7760     3.0270     0.7220 ca         1 OB6      -0.179500
     17 C16          2.9440     3.3670     2.0630 ca         1 OB6       0.149100
     18 C17          2.7740     2.3910     3.0430 ca         1 OB6      -0.179500
     19 C18          2.4440     1.0980     2.6790 ca         1 OB6      -0.051500
     20 O02          3.2630     4.6110     2.4620 oh         1 OB6      -0.530100
     21 O03          1.0630    -2.7180     1.3900 os         1 OB6      -0.404000
     22 S01         -1.9990    -1.5110     1.4620 s6         1 OB6       1.235100
     23 N01         -3.1430    -1.3190     0.2940 nh         1 OB6      -0.822300
     24 C19         -3.5250    -0.0030    -0.0750 ca         1 OB6       0.254000
     25 C20         -3.7180    -2.4560    -0.4340 c3         1 OB6       0.246800
     26 C21         -5.0840    -2.8490     0.0920 c3         1 OB6      -0.109100
     27 C22         -2.9830     0.5770    -1.2170 ca         1 OB6      -0.089000
     28 C23         -3.3690     1.8480    -1.6120 ca         1 OB6      -0.099000
     29 C24         -4.3010     2.5340    -0.8490 ca         1 OB6       0.126000
     30 C25         -4.8530     1.9710     0.2930 ca         1 OB6      -0.099000
     31 C26         -4.4610     0.6980     0.6750 ca         1 OB6      -0.089000
     32 CL1         -4.7890     4.1230    -1.3310 cl         1 OB6      -0.195000
     33 O04         -2.0100    -2.9120     1.8530 o          1 OB6      -0.526000
     34 O05         -2.2030    -0.4880     2.4770 o          1 OB6      -0.526000
     35 H1           6.3570     0.0870    -1.6370 ha         1 OB6       0.123000
     36 H2           4.6670    -0.1230     0.1040 ha         1 OB6       0.118000
     37 H3           2.2150    -2.4280    -2.5560 ha         1 OB6       0.118000
     38 H4           3.9090    -2.2180    -4.3010 ha         1 OB6       0.123000
     39 H5           6.9210    -0.4620    -3.8020 ho         1 OB6       0.467000
     40 H6           0.5830    -1.1640     2.6910 h1         1 OB6       0.116700
     41 H7          -0.5220    -0.0670     0.3860 h1         1 OB6       0.113700
     42 H8          -0.7740    -2.8820    -0.6070 hc         1 OB6       0.059700
     43 H9          -0.0200    -1.5310    -1.4470 hc         1 OB6       0.059700
     44 H10          1.6170    -3.5240    -0.4460 h1         1 OB6       0.105700
     45 H11          2.3100     1.4870    -0.6740 ha         1 OB6       0.119000
     46 H12          2.8880     3.7790    -0.0510 ha         1 OB6       0.124000
     47 H13          2.8990     2.6490     4.0880 ha         1 OB6       0.124000
     48 H14          2.3220     0.3540     3.4570 ha         1 OB6       0.119000
     49 H15          3.3420     5.2000     1.7030 ho         1 OB6       0.466000
     50 H16         -3.7770    -2.1720    -1.4860 h1         1 OB6       0.053200
     51 H17         -3.0350    -3.3020    -0.3850 h1         1 OB6       0.053200
     52 H18         -5.0230    -3.1720     1.1310 hc         1 OB6       0.046367
     53 H19         -5.7880    -2.0180     0.0310 hc         1 OB6       0.046367
     54 H20         -5.4880    -3.6710    -0.4980 hc         1 OB6       0.046367
     55 H21         -2.2560     0.0320    -1.8070 ha         1 OB6       0.129000
     56 H22         -2.9450     2.2960    -2.5000 ha         1 OB6       0.135000
     57 H23         -5.5800     2.5160     0.8780 ha         1 OB6       0.135000
     58 H24         -4.8920     0.2470     1.5590 ha         1 OB6       0.129000
@<TRIPOS>BOND
     1     1     2 ar  
     2     1     6 ar  
     3     1     8 1   
     4     2     3 ar  
     5     2    35 1   
     6     3     4 ar  
     7     3    36 1   
     8     4     5 ar  
     9     4     7 1   
    10     5     6 ar  
    11     5    37 1   
    12     6    38 1   
    13     7     9 2   
    14     7    13 1   
    15     8    39 1   
    16     9    10 1   
    17     9    14 1   
    18    10    11 1   
    19    10    21 1   
    20    10    40 1   
    21    11    12 1   
    22    11    22 1   
    23    11    41 1   
    24    12    13 1   
    25    12    42 1   
    26    12    43 1   
    27    13    21 1   
    28    13    44 1   
    29    14    15 ar  
    30    14    19 ar  
    31    15    16 ar  
    32    15    45 1   
    33    16    17 ar  
    34    16    46 1   
    35    17    18 ar  
    36    17    20 1   
    37    18    19 ar  
    38    18    47 1   
    39    19    48 1   
    40    20    49 1   
    41    22    23 1   
    42    22    33 2   
    43    22    34 2   
    44    23    24 1   
    45    23    25 1   
    46    24    27 ar  
    47    24    31 ar  
    48    25    26 1   
    49    25    50 1   
    50    25    51 1   
    51    26    52 1   
    52    26    53 1   
    53    26    54 1   
    54    27    28 ar  
    55    27    55 1   
    56    28    29 ar  
    57    28    56 1   
    58    29    30 ar  
    59    29    32 1   
    60    30    31 ar  
    61    30    57 1   
    62    31    58 1   
@<TRIPOS>SUBSTRUCTURE
     1 OB6         1 TEMP              0 ****  ****    0 ROOT
