@<TRIPOS>MOLECULE
OB7
   58    62     1     0     0
SMALL
No Charge or Current Charge


@<TRIPOS>ATOM
      1 C01         -5.0790    -2.6270     1.3990 ca         1 OB7       0.147100
      2 C02         -3.7500    -3.0570     1.5160 ca         1 OB7      -0.178500
      3 C03         -2.7280    -2.3910     0.8150 ca         1 OB7      -0.056500
      4 C04         -3.0330    -1.2850    -0.0020 ca         1 OB7      -0.078800
      5 C05         -4.3730    -0.8650    -0.1230 ca         1 OB7      -0.056500
      6 C06         -5.3930    -1.5320     0.5790 ca         1 OB7      -0.178500
      7 O01         -6.0610    -3.2800     2.0820 oh         1 OB7      -0.531100
      8 C07         -1.9540    -0.5850    -0.7530 ce         1 OB7      -0.065400
      9 C08         -1.7780     0.7450    -1.0260 cf         1 OB7      -0.079400
     10 C09         -0.4830     0.7790    -1.8710 c5         1 OB7       0.184500
     11 C10          0.6890     0.5460    -0.8710 c5         1 OB7      -0.072400
     12 C11          0.4230    -0.9730    -0.4920 c5         1 OB7      -0.361700
     13 C12         -0.7800    -1.3130    -1.4230 c5         1 OB7       0.212500
     14 C13         -2.4930     1.9570    -0.5780 ca         1 OB7      -0.077800
     15 C14         -2.5450     3.1040    -1.3970 ca         1 OB7      -0.055500
     16 C15         -3.2190     4.2610    -0.9630 ca         1 OB7      -0.180500
     17 C16         -3.8390     4.2810     0.2960 ca         1 OB7       0.147100
     18 C17         -3.7840     3.1500     1.1200 ca         1 OB7      -0.180500
     19 C18         -3.1120     1.9930     0.6880 ca         1 OB7      -0.055500
     20 O02         -4.4920     5.3970     0.7230 oh         1 OB7      -0.531100
     21 O03         -0.5250    -0.4740    -2.5480 os         1 OB7      -0.403000
     22 S01          1.8170    -2.0950    -1.0330 s6         1 OB7       1.234100
     23 N01          2.7420    -1.8210     0.4120 nh         1 OB7      -0.819300
     24 C19          3.2530    -0.5420     0.6920 ca         1 OB7       0.268000
     25 C20          2.7590     0.1970     1.7860 ca         1 OB7      -0.092000
     26 C21          3.2620     1.4800     2.0690 ca         1 OB7      -0.097000
     27 C22          4.2720     2.0300     1.2630 ca         1 OB7       0.123000
     28 C23          4.7810     1.2970     0.1790 ca         1 OB7      -0.097000
     29 C24          4.2740     0.0150    -0.1020 ca         1 OB7      -0.092000
     30 Cl1          4.9010     3.6340     1.6140 cl         1 OB7      -0.195000
     31 C25          2.7410    -2.8750     1.4410 c3         1 OB7       0.241800
     32 C26          3.8650    -3.9040     1.2420 c3         1 OB7      -0.108100
     33 O04          1.3900    -3.4980    -1.0270 o          1 OB7      -0.525500
     34 O05          2.5730    -1.5450    -2.1630 o          1 OB7      -0.525500
     35 H1          -3.5080    -3.9060     2.1490 ha         1 OB7       0.123500
     36 H2          -1.7000    -2.7320     0.9160 ha         1 OB7       0.122000
     37 H3          -4.6240    -0.0230    -0.7650 ha         1 OB7       0.122000
     38 H4          -6.4210    -1.1940     0.4770 ha         1 OB7       0.123500
     39 H5          -6.9180    -2.8470     1.8810 ho         1 OB7       0.466000
     40 H6          -0.3660     1.6270    -2.5580 h1         1 OB7       0.104700
     41 H7           1.6580     0.7270    -1.3480 hc         1 OB7       0.067200
     42 H8           0.6240     1.2130    -0.0040 hc         1 OB7       0.067200
     43 H9           0.2240    -1.1610     0.5680 h1         1 OB7       0.101700
     44 H10         -0.9520    -2.3670    -1.6900 h1         1 OB7       0.119700
     45 H11         -2.0790     3.1020    -2.3790 ha         1 OB7       0.119500
     46 H12         -3.2550     5.1330    -1.6100 ha         1 OB7       0.123000
     47 H13         -4.2580     3.1670     2.0980 ha         1 OB7       0.123000
     48 H14         -3.0610     1.1300     1.3470 ha         1 OB7       0.119500
     49 H15         -4.4270     6.0820     0.0240 ho         1 OB7       0.467000
     50 H16          1.9700    -0.2180     2.4060 ha         1 OB7       0.127500
     51 H17          2.8690     2.0470     2.9090 ha         1 OB7       0.134000
     52 H18          5.5680     1.7200    -0.4400 ha         1 OB7       0.134000
     53 H19          4.6820    -0.5520    -0.9330 ha         1 OB7       0.127500
     54 H20          2.8720    -2.4240     2.4330 h1         1 OB7       0.048200
     55 H21          1.7720    -3.3910     1.4680 h1         1 OB7       0.048200
     56 H22          3.7540    -4.4230     0.2840 hc         1 OB7       0.048367
     57 H23          4.8430    -3.4100     1.2600 hc         1 OB7       0.048367
     58 H24          3.8400    -4.6510     2.0440 hc         1 OB7       0.048367
@<TRIPOS>BOND
     1     1     2 ar  
     2     1     6 ar  
     3     1     7 1   
     4     2     3 ar  
     5     2    35 1   
     6     3     4 ar  
     7     3    36 1   
     8     4     5 ar  
     9     4     8 1   
    10     5     6 ar  
    11     5    37 1   
    12     6    38 1   
    13     7    39 1   
    14     8     9 2   
    15     8    13 1   
    16     9    10 1   
    17     9    14 1   
    18    10    11 1   
    19    10    21 1   
    20    10    40 1   
    21    11    12 1   
    22    11    41 1   
    23    11    42 1   
    24    12    13 1   
    25    12    22 1   
    26    12    43 1   
    27    13    21 1   
    28    13    44 1   
    29    14    15 ar  
    30    14    19 ar  
    31    15    16 ar  
    32    15    45 1   
    33    16    17 ar  
    34    16    46 1   
    35    17    18 ar  
    36    17    20 1   
    37    18    19 ar  
    38    18    47 1   
    39    19    48 1   
    40    20    49 1   
    41    22    23 1   
    42    22    33 2   
    43    22    34 2   
    44    23    24 1   
    45    23    31 1   
    46    24    25 ar  
    47    24    29 ar  
    48    25    26 ar  
    49    25    50 1   
    50    26    27 ar  
    51    26    51 1   
    52    27    28 ar  
    53    27    30 1   
    54    28    29 ar  
    55    28    52 1   
    56    29    53 1   
    57    31    32 1   
    58    31    54 1   
    59    31    55 1   
    60    32    56 1   
    61    32    57 1   
    62    32    58 1   
@<TRIPOS>SUBSTRUCTURE
     1 OB7         1 TEMP              0 ****  ****    0 ROOT
