@<TRIPOS>MOLECULE
OB7
   58    62     1     0     0
SMALL
bcc


@<TRIPOS>ATOM
      1 C01         -5.1690    -3.0510     0.7640 ca         1 OB7       0.147100
      2 C02         -3.8430    -3.4700     0.6990 ca         1 OB7      -0.196500
      3 C03         -2.8790    -2.6350     0.1620 ca         1 OB7      -0.074500
      4 C04         -3.1960    -1.3560    -0.3080 ca         1 OB7      -0.078800
      5 C05         -4.5350    -0.9610    -0.2490 ca         1 OB7      -0.074500
      6 C06         -5.5090    -1.7900     0.2760 ca         1 OB7      -0.196500
      7 O01         -6.0750    -3.8960     1.2900 oh         1 OB7      -0.492100
      8 C07         -2.1600    -0.5040    -0.8740 ce         1 OB7      -0.065400
      9 C08         -2.0100     0.8310    -0.9510 cf         1 OB7      -0.079400
     10 C09         -0.6490     1.0300    -1.5990 c5         1 OB7       0.161300
     11 C10          0.4070     0.7260    -0.5040 c5         1 OB7      -0.072400
     12 C11          0.2060    -0.7920    -0.3530 c5         1 OB7      -0.250900
     13 C12         -0.8700    -1.0590    -1.4540 c5         1 OB7       0.189300
     14 C13         -2.7770     1.9370    -0.3840 ca         1 OB7      -0.077800
     15 C14         -2.9380     3.1270    -1.0950 ca         1 OB7      -0.073500
     16 C15         -3.6430     4.1960    -0.5680 ca         1 OB7      -0.198500
     17 C16         -4.1990     4.1030     0.7050 ca         1 OB7       0.147100
     18 C17         -4.0350     2.9270     1.4380 ca         1 OB7      -0.198500
     19 C18         -3.3330     1.8670     0.8970 ca         1 OB7      -0.073500
     20 O02         -4.8880     5.1080     1.2750 oh         1 OB7      -0.492100
     21 O03         -0.5310    -0.1070    -2.4320 os         1 OB7      -0.356600
     22 S01          1.6770    -1.7710    -0.6560 s6         1 OB7       1.264900
     23 N01          2.6830    -1.4770     0.6120 nh         1 OB7      -0.680900
     24 C19          3.6780    -0.4700     0.5210 ca         1 OB7       0.129600
     25 C20          3.5300     0.7160     1.2320 ca         1 OB7      -0.110000
     26 C21          4.5110     1.6940     1.1820 ca         1 OB7      -0.115000
     27 C22          5.6380     1.4780     0.4040 ca         1 OB7       0.031400
     28 C23          5.8030     0.3010    -0.3100 ca         1 OB7      -0.115000
     29 C24          4.8220    -0.6760    -0.2410 ca         1 OB7      -0.110000
     30 CL1          6.8650     2.6970     0.3290 cl         1 OB7      -0.103400
     31 C25          2.4720    -2.1600     1.8940 c3         1 OB7       0.241800
     32 C26          3.4650    -3.2870     2.1070 c3         1 OB7      -0.108100
     33 O04          1.2580    -3.1650    -0.5710 o          1 OB7      -0.596300
     34 O05          2.3310    -1.2960    -1.8630 o          1 OB7      -0.596300
     35 H1          -3.5690    -4.4510     1.0670 ha         1 OB7       0.141500
     36 H2          -1.8570    -2.9930     0.1220 ha         1 OB7       0.140000
     37 H3          -4.8300     0.0060    -0.6350 ha         1 OB7       0.140000
     38 H4          -6.5410    -1.4560     0.2980 ha         1 OB7       0.141500
     39 H5          -6.9530    -3.4990     1.2820 ho         1 OB7       0.427000
     40 H6          -0.4870     1.9560    -2.1480 h1         1 OB7       0.104700
     41 H7           1.4020     0.9890    -0.8610 hc         1 OB7       0.067200
     42 H8           0.2260     1.2650     0.4230 hc         1 OB7       0.067200
     43 H9          -0.1380    -1.0880     0.6410 h1         1 OB7       0.101700
     44 H10         -0.9080    -2.0690    -1.8610 h1         1 OB7       0.119700
     45 H11         -2.5170     3.2260    -2.0880 ha         1 OB7       0.137500
     46 H12         -3.7560     5.1030    -1.1510 ha         1 OB7       0.141000
     47 H13         -4.4500     2.8530     2.4350 ha         1 OB7       0.141000
     48 H14         -3.2080     0.9710     1.4910 ha         1 OB7       0.137500
     49 H15         -4.9220     5.8700     0.6860 ho         1 OB7       0.428000
     50 H16          2.6440     0.8810     1.8320 ha         1 OB7       0.145500
     51 H17          4.3910     2.6140     1.7380 ha         1 OB7       0.152000
     52 H18          6.6900     0.1400    -0.9070 ha         1 OB7       0.152000
     53 H19          4.9550    -1.6040    -0.7800 ha         1 OB7       0.145500
     54 H20          2.5520    -1.4170     2.6870 h1         1 OB7       0.048200
     55 H21          1.4520    -2.5390     1.9370 h1         1 OB7       0.048200
     56 H22          3.3580    -4.0480     1.3350 hc         1 OB7       0.048367
     57 H23          4.4910    -2.9160     2.0860 hc         1 OB7       0.048367
     58 H24          3.2990    -3.7540     3.0770 hc         1 OB7       0.048367
@<TRIPOS>BOND
     1     1     2 ar  
     2     1     6 ar  
     3     1     7 1   
     4     2     3 ar  
     5     2    35 1   
     6     3     4 ar  
     7     3    36 1   
     8     4     5 ar  
     9     4     8 1   
    10     5     6 ar  
    11     5    37 1   
    12     6    38 1   
    13     7    39 1   
    14     8     9 2   
    15     8    13 1   
    16     9    10 1   
    17     9    14 1   
    18    10    11 1   
    19    10    21 1   
    20    10    40 1   
    21    11    12 1   
    22    11    41 1   
    23    11    42 1   
    24    12    13 1   
    25    12    22 1   
    26    12    43 1   
    27    13    21 1   
    28    13    44 1   
    29    14    15 ar  
    30    14    19 ar  
    31    15    16 ar  
    32    15    45 1   
    33    16    17 ar  
    34    16    46 1   
    35    17    18 ar  
    36    17    20 1   
    37    18    19 ar  
    38    18    47 1   
    39    19    48 1   
    40    20    49 1   
    41    22    23 1   
    42    22    33 2   
    43    22    34 2   
    44    23    24 1   
    45    23    31 1   
    46    24    25 ar  
    47    24    29 ar  
    48    25    26 ar  
    49    25    50 1   
    50    26    27 ar  
    51    26    51 1   
    52    27    28 ar  
    53    27    30 1   
    54    28    29 ar  
    55    28    52 1   
    56    29    53 1   
    57    31    32 1   
    58    31    54 1   
    59    31    55 1   
    60    32    56 1   
    61    32    57 1   
    62    32    58 1   
@<TRIPOS>SUBSTRUCTURE
     1 OB7         1 TEMP              0 ****  ****    0 ROOT
