@<TRIPOS>MOLECULE
OB8
   64    69     1     0     0
SMALL
No Charge or Current Charge


@<TRIPOS>ATOM
      1 C01         -2.5820     3.4310    -1.5290 ca         1 OB8      -0.180000
      2 C02         -2.5710     3.9650    -0.2300 ca         1 OB8       0.148100
      3 C03         -2.4070     3.1190     0.8750 ca         1 OB8      -0.180000
      4 C04         -2.2570     1.7340     0.6860 ca         1 OB8      -0.052500
      5 C05         -2.2760     1.1900    -0.6130 ca         1 OB8      -0.082800
      6 C06         -2.4320     2.0460    -1.7200 ca         1 OB8      -0.052500
      7 O01         -2.7150     5.3060    -0.0370 oh         1 OB8      -0.530100
      8 C07         -2.0970    -0.2740    -0.8120 ce         1 OB8      -0.075400
      9 C08         -2.6320    -1.3360    -0.1350 cf         1 OB8      -0.070400
     10 C09         -1.9550    -2.5650    -0.7850 c5         1 OB8       0.179500
     11 C10         -3.6570    -1.4360     0.9250 ca         1 OB8      -0.075800
     12 C11         -1.1170    -0.8720    -1.8300 c5         1 OB8       0.216500
     13 C12         -4.6490    -0.4430     1.0640 ca         1 OB8      -0.055500
     14 C13         -5.6260    -0.5450     2.0710 ca         1 OB8      -0.178500
     15 C14         -5.6210    -1.6430     2.9440 ca         1 OB8       0.147100
     16 C15         -4.6460    -2.6400     2.8080 ca         1 OB8      -0.178500
     17 C16         -3.6690    -2.5410     1.8020 ca         1 OB8      -0.055500
     18 O02         -6.5640    -1.7500     3.9220 oh         1 OB8      -0.531100
     19 C17          0.0830    -1.3000    -0.9340 c5         1 OB8      -0.347700
     20 C18         -0.4950    -2.6000    -0.2360 c5         1 OB8      -0.069400
     21 S01          1.4920    -1.6900    -2.1070 s6         1 OB8       1.213100
     22 O03         -1.7330    -2.1250    -2.1210 os         1 OB8      -0.400000
     23 N01          2.7150    -1.5640    -0.8710 nh         1 OB8      -0.790300
     24 O04          1.4510    -3.0820    -2.5700 o          1 OB8      -0.522500
     25 O05          1.7180    -0.6030    -3.0650 o          1 OB8      -0.522500
     26 C19          3.1750    -0.3050    -0.3600 ca         1 OB8       0.305000
     27 C20          3.1340    -2.8460    -0.2590 c3         1 OB8       0.231800
     28 C21          4.3370    -3.5000    -0.9640 c3         1 OB8      -0.124100
     29 C22          2.5140     0.9290    -0.6000 ca         1 OB8      -0.130000
     30 C23          2.9990     2.1400    -0.0760 ca         1 OB8      -0.066000
     31 C24          4.1650     2.1600     0.7000 ca         1 OB8      -0.051000
     32 C25          4.8490     0.9550     0.9470 ca         1 OB8      -0.015000
     33 C26          4.3570    -0.2540     0.4210 ca         1 OB8      -0.133000
     34 C27          4.6550     3.3700     1.2260 ca         1 OB8      -0.090000
     35 C28          5.8290     3.3760     1.9990 ca         1 OB8      -0.111000
     36 C29          6.5140     2.1740     2.2460 ca         1 OB8      -0.100000
     37 C30          6.0250     0.9650     1.7210 ca         1 OB8      -0.104000
     38 H1          -2.7060     4.0800    -2.3920 ha         1 OB8       0.123500
     39 H2          -2.3940     3.5330     1.8800 ha         1 OB8       0.123500
     40 H3          -2.1220     1.0830     1.5470 ha         1 OB8       0.119500
     41 H4          -2.4460     1.6390    -2.7290 ha         1 OB8       0.119500
     42 H5          -2.8170     5.7370    -0.9120 ho         1 OB8       0.468000
     43 H6          -2.5170    -3.5080    -0.7360 h1         1 OB8       0.105700
     44 H7          -0.9070    -0.2650    -2.7240 h1         1 OB8       0.114700
     45 H8          -4.6780     0.4030     0.3830 ha         1 OB8       0.118500
     46 H9          -6.3830     0.2300     2.1620 ha         1 OB8       0.123000
     47 H10         -4.6440    -3.4920     3.4840 ha         1 OB8       0.123000
     48 H11         -2.9160    -3.3200     1.7170 ha         1 OB8       0.118500
     49 H12         -7.1580    -0.9710     3.8670 ho         1 OB8       0.467000
     50 H13          0.3940    -0.5250    -0.2310 h1         1 OB8       0.111700
     51 H14         -0.4630    -2.5360     0.8580 hc         1 OB8       0.062700
     52 H15          0.0070    -3.5300    -0.5210 hc         1 OB8       0.062700
     53 H16          3.3770    -2.6950     0.8010 h1         1 OB8       0.056200
     54 H17          2.3030    -3.5640    -0.2540 h1         1 OB8       0.056200
     55 H18          4.6230    -4.4230    -0.4450 hc         1 OB8       0.051700
     56 H19          4.0900    -3.7540    -2.0010 hc         1 OB8       0.051700
     57 H20          5.2030    -2.8290    -0.9730 hc         1 OB8       0.051700
     58 H21          1.6080     0.9890    -1.1880 ha         1 OB8       0.109000
     59 H22          2.4610     3.0640    -0.2770 ha         1 OB8       0.118000
     60 H23          4.9210    -1.1560     0.6240 ha         1 OB8       0.120000
     61 H24          4.1300     4.3040     1.0380 ha         1 OB8       0.114000
     62 H25          6.2080     4.3110     2.4060 ha         1 OB8       0.114000
     63 H26          7.4230     2.1790     2.8440 ha         1 OB8       0.113000
     64 H27          6.5620     0.0400     1.9180 ha         1 OB8       0.113000
@<TRIPOS>BOND
     1     1     2 ar  
     2     1     6 ar  
     3     1    38 1   
     4     2     3 ar  
     5     2     7 1   
     6     3     4 ar  
     7     3    39 1   
     8     4     5 ar  
     9     4    40 1   
    10     5     6 ar  
    11     5     8 1   
    12     6    41 1   
    13     7    42 1   
    14     8     9 2   
    15     8    12 1   
    16     9    10 1   
    17     9    11 1   
    18    10    20 1   
    19    10    22 1   
    20    10    43 1   
    21    11    13 ar  
    22    11    17 ar  
    23    12    19 1   
    24    12    22 1   
    25    12    44 1   
    26    13    14 ar  
    27    13    45 1   
    28    14    15 ar  
    29    14    46 1   
    30    15    16 ar  
    31    15    18 1   
    32    16    17 ar  
    33    16    47 1   
    34    17    48 1   
    35    18    49 1   
    36    19    20 1   
    37    19    21 1   
    38    19    50 1   
    39    20    51 1   
    40    20    52 1   
    41    21    23 1   
    42    21    24 2   
    43    21    25 2   
    44    23    26 1   
    45    23    27 1   
    46    26    29 ar  
    47    26    33 ar  
    48    27    28 1   
    49    27    53 1   
    50    27    54 1   
    51    28    55 1   
    52    28    56 1   
    53    28    57 1   
    54    29    30 ar  
    55    29    58 1   
    56    30    31 ar  
    57    30    59 1   
    58    31    32 ar  
    59    31    34 ar  
    60    32    33 ar  
    61    32    37 ar  
    62    33    60 1   
    63    34    35 ar  
    64    34    61 1   
    65    35    36 ar  
    66    35    62 1   
    67    36    37 ar  
    68    36    63 1   
    69    37    64 1   
@<TRIPOS>SUBSTRUCTURE
     1 OB8         1 TEMP              0 ****  ****    0 ROOT
