@<TRIPOS>MOLECULE
OB8
   64    69     1     0     0
SMALL
bcc


@<TRIPOS>ATOM
      1 C01         -3.2440     3.0710    -2.2890 ca         1 OB8      -0.198000
      2 C02         -3.4160     3.8160    -1.1250 ca         1 OB8       0.148100
      3 C03         -3.2390     3.1990     0.1150 ca         1 OB8      -0.198000
      4 C04         -2.9110     1.8590     0.1780 ca         1 OB8      -0.070500
      5 C05         -2.7510     1.0910    -0.9800 ca         1 OB8      -0.082800
      6 C06         -2.9080     1.7300    -2.2100 ca         1 OB8      -0.070500
      7 O01         -3.7420     5.1200    -1.1370 oh         1 OB8      -0.491100
      8 C07         -2.3900    -0.3230    -0.9160 ce         1 OB8      -0.075400
      9 C08         -2.7590    -1.3150    -0.0850 cf         1 OB8      -0.070400
     10 C09         -1.7980    -2.4520    -0.3960 c5         1 OB8       0.156300
     11 C10         -3.7740    -1.3810     0.9570 ca         1 OB8      -0.075800
     12 C11         -1.2480    -0.9120    -1.7260 c5         1 OB8       0.193300
     13 C12         -4.9420    -0.6160     0.8940 ca         1 OB8      -0.073500
     14 C13         -5.9110    -0.6980     1.8760 ca         1 OB8      -0.196500
     15 C14         -5.7380    -1.5570     2.9620 ca         1 OB8       0.147100
     16 C15         -4.5880    -2.3380     3.0350 ca         1 OB8      -0.196500
     17 C16         -3.6290    -2.2520     2.0410 ca         1 OB8      -0.073500
     18 O02         -6.6460    -1.6700     3.9480 oh         1 OB8      -0.492100
     19 C17         -0.0460    -0.8930    -0.7240 c5         1 OB8      -0.236900
     20 C18         -0.4160    -2.0690     0.1940 c5         1 OB8      -0.069400
     21 S01          1.5020    -1.0920    -1.6120 s6         1 OB8       1.243900
     22 O03         -1.5670    -2.2790    -1.7830 os         1 OB8      -0.353600
     23 N01          2.6860    -1.3720    -0.4680 nh         1 OB8      -0.651900
     24 O04          1.3920    -2.2980    -2.4160 o          1 OB8      -0.593300
     25 O05          1.7840     0.1760    -2.2670 o          1 OB8      -0.593300
     26 C19          3.3860    -0.2870     0.1130 ca         1 OB8       0.166600
     27 C20          3.2130    -2.7400    -0.3330 c3         1 OB8       0.231800
     28 C21          4.1880    -3.1880    -1.4120 c3         1 OB8      -0.124100
     29 C22          2.6930     0.8670     0.5610 ca         1 OB8      -0.148000
     30 C23          3.3560     1.8970     1.1620 ca         1 OB8      -0.084000
     31 C24          4.7510     1.8470     1.3780 ca         1 OB8      -0.051000
     32 C25          5.4470     0.6870     0.9590 ca         1 OB8      -0.015000
     33 C26          4.7420    -0.3600     0.3240 ca         1 OB8      -0.151000
     34 C27          5.4630     2.8970     2.0000 ca         1 OB8      -0.108000
     35 C28          6.8150     2.8000     2.1930 ca         1 OB8      -0.129000
     36 C29          7.5110     1.6470     1.7730 ca         1 OB8      -0.118000
     37 C30          6.8440     0.6140     1.1720 ca         1 OB8      -0.122000
     38 H1          -3.3730     3.5370    -3.2590 ha         1 OB8       0.141500
     39 H2          -3.3550     3.7770     1.0230 ha         1 OB8       0.141500
     40 H3          -2.7660     1.4000     1.1480 ha         1 OB8       0.137500
     41 H4          -2.7820     1.1720    -3.1300 ha         1 OB8       0.137500
     42 H5          -3.8470     5.4330    -2.0430 ho         1 OB8       0.429000
     43 H6          -2.1340    -3.4620    -0.1680 h1         1 OB8       0.105700
     44 H7          -1.0630    -0.4860    -2.7110 h1         1 OB8       0.114700
     45 H8          -5.1060     0.0500     0.0560 ha         1 OB8       0.136500
     46 H9          -6.8080    -0.0950     1.7950 ha         1 OB8       0.141000
     47 H10         -4.4490    -3.0150     3.8690 ha         1 OB8       0.141000
     48 H11         -2.7460    -2.8730     2.1260 ha         1 OB8       0.136500
     49 H12         -7.3950    -1.0860     3.7840 ho         1 OB8       0.428000
     50 H13          0.0180     0.0610    -0.2030 h1         1 OB8       0.111700
     51 H14         -0.4580    -1.7760     1.2410 hc         1 OB8       0.062700
     52 H15          0.2680    -2.9140     0.1120 hc         1 OB8       0.062700
     53 H16          3.6870    -2.7750     0.6480 h1         1 OB8       0.056200
     54 H17          2.3780    -3.4360    -0.2830 h1         1 OB8       0.056200
     55 H18          4.5990    -4.1590    -1.1360 hc         1 OB8       0.051700
     56 H19          3.6960    -3.2940    -2.3760 hc         1 OB8       0.051700
     57 H20          5.0220    -2.5000    -1.5360 hc         1 OB8       0.051700
     58 H21          1.6210     0.9440     0.4630 ha         1 OB8       0.127000
     59 H22          2.7990     2.7630     1.4980 ha         1 OB8       0.136000
     60 H23          5.3120    -1.2230     0.0090 ha         1 OB8       0.138000
     61 H24          4.9240     3.7790     2.3250 ha         1 OB8       0.132000
     62 H25          7.3550     3.6080     2.6690 ha         1 OB8       0.132000
     63 H26          8.5800     1.5820     1.9300 ha         1 OB8       0.131000
     64 H27          7.3800    -0.2700     0.8480 ha         1 OB8       0.131000
@<TRIPOS>BOND
     1     1     2 ar  
     2     1     6 ar  
     3     1    38 1   
     4     2     3 ar  
     5     2     7 1   
     6     3     4 ar  
     7     3    39 1   
     8     4     5 ar  
     9     4    40 1   
    10     5     6 ar  
    11     5     8 1   
    12     6    41 1   
    13     7    42 1   
    14     8     9 2   
    15     8    12 1   
    16     9    10 1   
    17     9    11 1   
    18    10    20 1   
    19    10    22 1   
    20    10    43 1   
    21    11    13 ar  
    22    11    17 ar  
    23    12    19 1   
    24    12    22 1   
    25    12    44 1   
    26    13    14 ar  
    27    13    45 1   
    28    14    15 ar  
    29    14    46 1   
    30    15    16 ar  
    31    15    18 1   
    32    16    17 ar  
    33    16    47 1   
    34    17    48 1   
    35    18    49 1   
    36    19    20 1   
    37    19    21 1   
    38    19    50 1   
    39    20    51 1   
    40    20    52 1   
    41    21    23 1   
    42    21    24 2   
    43    21    25 2   
    44    23    26 1   
    45    23    27 1   
    46    26    29 ar  
    47    26    33 ar  
    48    27    28 1   
    49    27    53 1   
    50    27    54 1   
    51    28    55 1   
    52    28    56 1   
    53    28    57 1   
    54    29    30 ar  
    55    29    58 1   
    56    30    31 ar  
    57    30    59 1   
    58    31    32 ar  
    59    31    34 ar  
    60    32    33 ar  
    61    32    37 ar  
    62    33    60 1   
    63    34    35 ar  
    64    34    61 1   
    65    35    36 ar  
    66    35    62 1   
    67    36    37 ar  
    68    36    63 1   
    69    37    64 1   
@<TRIPOS>SUBSTRUCTURE
     1 OB8         1 TEMP              0 ****  ****    0 ROOT
