@<TRIPOS>MOLECULE
OBA
   20    20     1     0     0
SMALL
No Charge or Current Charge


@<TRIPOS>ATOM
      1 C1          -2.5700     0.1850    -2.0750 ca         1 OBA      -0.112000
      2 C2          -2.0190     0.2030    -0.7840 ca         1 OBA      -0.202000
      3 C3          -0.6220     0.1150    -0.5890 ca         1 OBA       0.031000
      4 C4           0.2300     0.0290    -1.7240 ca         1 OBA      -0.213600
      5 C5          -0.3410     0.0060    -3.0170 ca         1 OBA      -0.070000
      6 C6          -1.7310     0.0820    -3.1900 ca         1 OBA      -0.220000
      7 C10          1.7370    -0.0510    -1.5940 c          1 OBA       0.713600
      8 O11          2.2860     0.6200    -0.7330 o          1 OBA      -0.718000
      9 O12          2.3460    -0.7650    -2.3770 o          1 OBA      -0.718000
     10 N13         -0.0490     0.1270     0.7140 ns         1 OBA      -0.144000
     11 C14         -0.5830    -0.0960     1.9810 c          1 OBA       0.447100
     12 O15         -1.7560    -0.4380     2.1860 o          1 OBA      -0.667100
     13 C16          0.5110     0.1180     3.1670 c          1 OBA       0.659000
     14 O17          1.6520     0.4530     2.8560 o          1 OBA      -0.700500
     15 O18          0.1650    -0.0610     4.3340 o          1 OBA      -0.700500
     16 H1          -3.6470     0.2530    -2.2080 ha         1 OBA       0.064000
     17 H2          -2.6970     0.2980     0.0580 ha         1 OBA       0.130000
     18 H5           0.2990    -0.0640    -3.8950 ha         1 OBA       0.111000
     19 H6          -2.1560     0.0670    -4.1900 ha         1 OBA       0.066000
     20 H13          0.9410     0.3590     0.7200 hn         1 OBA       0.244000
@<TRIPOS>BOND
     1     1     2 ar  
     2     1     6 ar  
     3     1    16 1   
     4     2     3 ar  
     5     2    17 1   
     6     3     4 ar  
     7     3    10 1   
     8     4     5 ar  
     9     4     7 1   
    10     5     6 ar  
    11     5    18 1   
    12     6    19 1   
    13     7     8 1   
    14     7     9 1   
    15    10    11 1   
    16    10    20 1   
    17    11    12 2   
    18    11    13 1   
    19    13    14 1   
    20    13    15 1   
@<TRIPOS>SUBSTRUCTURE
     1 OBA         1 TEMP              0 ****  ****    0 ROOT
