@<TRIPOS>MOLECULE
OBA
   20    20     1     0     0
SMALL
abcg2


@<TRIPOS>ATOM
      1 C1          -2.5410     0.0900    -2.0110 ca         1 OBA      -0.112000
      2 C2          -1.9920     0.1080    -0.7400 ca         1 OBA      -0.202000
      3 C3          -0.6020     0.0820    -0.5580 ca         1 OBA       0.031000
      4 C4           0.2380     0.0350    -1.6950 ca         1 OBA      -0.213600
      5 C5          -0.3530     0.0180    -2.9560 ca         1 OBA      -0.070000
      6 C6          -1.7270     0.0460    -3.1320 ca         1 OBA      -0.220000
      7 C10          1.7630     0.0030    -1.6300 c          1 OBA       0.713600
      8 O11          2.2980     0.0580    -0.4960 o          1 OBA      -0.718000
      9 O12          2.3720    -0.0740    -2.7080 o          1 OBA      -0.718000
     10 N13         -0.0120     0.1000     0.7020 ns         1 OBA      -0.144000
     11 C14         -0.5880     0.1160     1.9230 c          1 OBA       0.447100
     12 O15         -1.7890     0.1240     2.1430 o          1 OBA      -0.667100
     13 C16          0.4440     0.1240     3.0950 c          1 OBA       0.659000
     14 O17          1.6440     0.1140     2.7740 o          1 OBA      -0.700500
     15 O18         -0.0560     0.1390     4.2260 o          1 OBA      -0.700500
     16 H1          -3.6180     0.1120    -2.1180 ha         1 OBA       0.064000
     17 H2          -2.6460     0.1420     0.1150 ha         1 OBA       0.130000
     18 H5           0.2960    -0.0190    -3.8200 ha         1 OBA       0.111000
     19 H6          -2.1530     0.0320    -4.1270 ha         1 OBA       0.066000
     20 H13          1.0180     0.0910     0.6540 hn         1 OBA       0.244000
@<TRIPOS>BOND
     1     1     2 ar  
     2     1     6 ar  
     3     1    16 1   
     4     2     3 ar  
     5     2    17 1   
     6     3     4 ar  
     7     3    10 1   
     8     4     5 ar  
     9     4     7 1   
    10     5     6 ar  
    11     5    18 1   
    12     6    19 1   
    13     7     8 1   
    14     7     9 1   
    15    10    11 1   
    16    10    20 1   
    17    11    12 2   
    18    11    13 1   
    19    13    14 1   
    20    13    15 1   
@<TRIPOS>SUBSTRUCTURE
     1 OBA         1 TEMP              0 ****  ****    0 ROOT
