@<TRIPOS>MOLECULE
OBB
   51    55     1     0     0
SMALL
abcg2


@<TRIPOS>ATOM
      1 C01        -17.2900   -24.6090    -1.2820 ca         1 OBB       0.143100
      2 C02        -18.6030   -25.0390    -1.4840 ca         1 OBB      -0.172500
      3 C03        -18.9280   -25.7590    -2.6210 ca         1 OBB      -0.056000
      4 C04        -17.9610   -26.0730    -3.5870 ca         1 OBB      -0.078800
      5 C05        -16.6450   -25.6490    -3.3520 ca         1 OBB      -0.056000
      6 C06        -16.3100   -24.9200    -2.2200 ca         1 OBB      -0.172500
      7 O01        -16.9180   -23.8940    -0.1820 oh         1 OBB      -0.534100
      8 C07        -18.2930   -26.8360    -4.7830 ce         1 OBB      -0.056400
      9 C08        -19.4450   -26.9620    -5.4760 cf         1 OBB      -0.082400
     10 C09        -19.0930   -27.8610    -6.6570 c5         1 OBB       0.219500
     11 C10        -20.7300   -26.2650    -5.3980 ca         1 OBB      -0.081800
     12 C11        -20.7990   -24.8820    -5.1970 ca         1 OBB      -0.058000
     13 C12        -22.0160   -24.2190    -5.1760 ca         1 OBB      -0.176000
     14 C13        -23.2000   -24.9360    -5.3540 ca         1 OBB       0.142100
     15 C14        -23.1530   -26.3120    -5.5620 ca         1 OBB      -0.176000
     16 C15        -21.9290   -26.9610    -5.5910 ca         1 OBB      -0.058000
     17 O02        -24.4240   -24.3370    -5.3430 oh         1 OBB      -0.535100
     18 C16        -17.2640   -27.6340    -5.5830 c5         1 OBB       0.177500
     19 C17        -16.9260   -26.8290    -6.8670 c5         1 OBB      -0.063400
     20 C18        -18.2880   -26.9050    -7.6070 c5         1 OBB      -0.374700
     21 O03        -18.0620   -28.6970    -6.1340 os         1 OBB      -0.410000
     22 S01        -18.0980   -27.5130    -9.2780 s6         1 OBB       1.351700
     23 O04        -19.5020   -27.0970    -9.9700 os         1 OBB      -0.461800
     24 O05        -17.9620   -28.9440    -9.2930 o          1 OBB      -0.519500
     25 O06        -17.1440   -26.7010    -9.9790 o          1 OBB      -0.519500
     26 C19        -20.6740   -27.8430    -9.7900 ca         1 OBB       0.119100
     27 C20        -20.8100   -29.0670   -10.4300 ca         1 OBB      -0.082000
     28 C21        -22.0140   -29.7390   -10.2790 ca         1 OBB       0.001100
     29 C22        -23.0590   -29.2160    -9.5300 ca         1 OBB      -0.084000
     30 C23        -22.8870   -27.9820    -8.9110 ca         1 OBB      -0.099000
     31 C24        -21.6920   -27.2850    -9.0350 ca         1 OBB      -0.108000
     32 BR1        -22.2370   -31.4300   -11.1450 br         1 OBB      -0.085100
     33 H1         -19.3620   -24.8140    -0.7440 ha         1 OBB       0.125000
     34 H2         -19.9470   -26.0920    -2.7570 ha         1 OBB       0.119000
     35 H3         -15.8680   -25.8780    -4.0690 ha         1 OBB       0.119000
     36 H4         -15.2920   -24.5910    -2.0560 ha         1 OBB       0.125000
     37 H5         -17.6840   -23.7430     0.3890 ho         1 OBB       0.465000
     38 H6         -19.8890   -28.4400    -7.1090 h1         1 OBB       0.108700
     39 H7         -19.8850   -24.3170    -5.0670 ha         1 OBB       0.123000
     40 H8         -22.0540   -23.1450    -5.0310 ha         1 OBB       0.125000
     41 H9         -24.0750   -26.8600    -5.7090 ha         1 OBB       0.125000
     42 H10        -21.9040   -28.0290    -5.7640 ha         1 OBB       0.123000
     43 H11        -24.3280   -23.3880    -5.1840 ho         1 OBB       0.467000
     44 H12        -16.4100   -28.0300    -5.0430 h1         1 OBB       0.107700
     45 H13        -16.1320   -27.3310    -7.4180 hc         1 OBB       0.070700
     46 H14        -16.6270   -25.8030    -6.6730 hc         1 OBB       0.070700
     47 H15        -18.7690   -25.9370    -7.7280 h1         1 OBB       0.113700
     48 H16        -20.0020   -29.4690   -11.0210 ha         1 OBB       0.158000
     49 H17        -23.9890   -29.7560    -9.4320 ha         1 OBB       0.137000
     50 H18        -23.6920   -27.5640    -8.3220 ha         1 OBB       0.128000
     51 H19        -21.5460   -26.3280    -8.5530 ha         1 OBB       0.137000
@<TRIPOS>BOND
     1     1     2 ar  
     2     1     6 ar  
     3     1     7 1   
     4     2     3 ar  
     5     2    33 1   
     6     3     4 ar  
     7     3    34 1   
     8     4     5 ar  
     9     4     8 1   
    10     5     6 ar  
    11     5    35 1   
    12     6    36 1   
    13     7    37 1   
    14     8     9 2   
    15     8    18 1   
    16     9    10 1   
    17     9    11 1   
    18    10    20 1   
    19    10    21 1   
    20    10    38 1   
    21    11    12 ar  
    22    11    16 ar  
    23    12    13 ar  
    24    12    39 1   
    25    13    14 ar  
    26    13    40 1   
    27    14    15 ar  
    28    14    17 1   
    29    15    16 ar  
    30    15    41 1   
    31    16    42 1   
    32    17    43 1   
    33    18    19 1   
    34    18    21 1   
    35    18    44 1   
    36    19    20 1   
    37    19    45 1   
    38    19    46 1   
    39    20    22 1   
    40    20    47 1   
    41    22    23 1   
    42    22    24 2   
    43    22    25 2   
    44    23    26 1   
    45    26    27 ar  
    46    26    31 ar  
    47    27    28 ar  
    48    27    48 1   
    49    28    29 ar  
    50    28    32 1   
    51    29    30 ar  
    52    29    49 1   
    53    30    31 ar  
    54    30    50 1   
    55    31    51 1   
@<TRIPOS>SUBSTRUCTURE
     1 OBB         1 TEMP              0 ****  ****    0 ROOT
