@<TRIPOS>MOLECULE
OBB
   51    55     1     0     0
SMALL
No Charge or Current Charge


@<TRIPOS>ATOM
      1 C01        -17.5270   -24.5860    -1.3780 ca         1 OBB       0.143100
      2 C02        -18.7360   -25.2770    -1.5510 ca         1 OBB      -0.172500
      3 C03        -18.9650   -26.0070    -2.7310 ca         1 OBB      -0.056000
      4 C04        -17.9900   -26.0450    -3.7480 ca         1 OBB      -0.078800
      5 C05        -16.7750   -25.3560    -3.5620 ca         1 OBB      -0.056000
      6 C06        -16.5480   -24.6270    -2.3810 ca         1 OBB      -0.172500
      7 O01        -17.2950   -23.8760    -0.2380 oh         1 OBB      -0.534100
      8 C07        -18.2310   -26.8250    -4.9950 ce         1 OBB      -0.056400
      9 C08        -19.3840   -27.0400    -5.6970 cf         1 OBB      -0.082400
     10 C09        -18.9510   -27.9520    -6.8640 c5         1 OBB       0.219500
     11 C10        -20.7480   -26.5000    -5.5520 ca         1 OBB      -0.081800
     12 C11        -20.9460   -25.1650    -5.1470 ca         1 OBB      -0.058000
     13 C12        -22.2460   -24.6470    -5.0100 ca         1 OBB      -0.176000
     14 C13        -23.3570   -25.4620    -5.2750 ca         1 OBB       0.142100
     15 C14        -23.1690   -26.7910    -5.6770 ca         1 OBB      -0.176000
     16 C15        -21.8700   -27.3100    -5.8200 ca         1 OBB      -0.058000
     17 O02        -24.6200   -24.9690    -5.1440 oh         1 OBB      -0.535100
     18 C16        -17.1410   -27.6250    -5.7260 c5         1 OBB       0.177500
     19 C17        -16.8310   -26.7880    -7.0090 c5         1 OBB      -0.063400
     20 C18        -18.1680   -27.0130    -7.8320 c5         1 OBB      -0.374700
     21 O03        -17.8960   -28.7040    -6.2730 os         1 OBB      -0.410000
     22 S01        -17.8340   -27.9300    -9.4380 s6         1 OBB       1.351700
     23 O04        -19.1550   -27.5100   -10.3380 os         1 OBB      -0.461800
     24 O05        -17.8790   -29.3810    -9.2160 o          1 OBB      -0.519500
     25 O06        -16.6600   -27.3430   -10.0980 o          1 OBB      -0.519500
     26 C19        -20.4170   -27.7380    -9.8530 ca         1 OBB       0.119100
     27 C20        -20.9400   -29.0430    -9.7740 ca         1 OBB      -0.082000
     28 C21        -22.2480   -29.2430    -9.3010 ca         1 OBB       0.001100
     29 C22        -23.0430   -28.1450    -8.9300 ca         1 OBB      -0.084000
     30 C23        -22.5270   -26.8410    -9.0290 ca         1 OBB      -0.099000
     31 C24        -21.2150   -26.6390    -9.4920 ca         1 OBB      -0.108000
     32 Br1        -22.9520   -31.0150    -9.1700 br         1 OBB      -0.085100
     33 H1         -19.4990   -25.2570    -0.7770 ha         1 OBB       0.125000
     34 H2         -19.9000   -26.5500    -2.8500 ha         1 OBB       0.119000
     35 H3         -16.0080   -25.3770    -4.3320 ha         1 OBB       0.119000
     36 H4         -15.6100   -24.0930    -2.2460 ha         1 OBB       0.125000
     37 H5         -18.0790   -23.9610     0.3450 ho         1 OBB       0.465000
     38 H6         -19.7380   -28.5890    -7.2950 h1         1 OBB       0.108700
     39 H7         -20.0890   -24.5240    -4.9490 ha         1 OBB       0.123000
     40 H8         -22.3800   -23.6130    -4.6990 ha         1 OBB       0.125000
     41 H9         -24.0300   -27.4230    -5.8800 ha         1 OBB       0.125000
     42 H10        -21.7400   -28.3450    -6.1270 ha         1 OBB       0.123000
     43 H11        -24.5590   -24.0340    -4.8540 ho         1 OBB       0.467000
     44 H12        -16.2810   -27.9540    -5.1250 h1         1 OBB       0.107700
     45 H13        -15.9340   -27.1650    -7.5140 hc         1 OBB       0.070700
     46 H14        -16.6520   -25.7310    -6.7810 hc         1 OBB       0.070700
     47 H15        -18.6930   -26.0860    -8.0850 h1         1 OBB       0.113700
     48 H16        -20.3410   -29.8960   -10.0820 ha         1 OBB       0.158000
     49 H17        -24.0560   -28.3030    -8.5680 ha         1 OBB       0.137000
     50 H18        -23.1420   -25.9890    -8.7440 ha         1 OBB       0.128000
     51 H19        -20.8180   -25.6300    -9.5740 ha         1 OBB       0.137000
@<TRIPOS>BOND
     1     1     2 ar  
     2     1     6 ar  
     3     1     7 1   
     4     2     3 ar  
     5     2    33 1   
     6     3     4 ar  
     7     3    34 1   
     8     4     5 ar  
     9     4     8 1   
    10     5     6 ar  
    11     5    35 1   
    12     6    36 1   
    13     7    37 1   
    14     8     9 2   
    15     8    18 1   
    16     9    10 1   
    17     9    11 1   
    18    10    20 1   
    19    10    21 1   
    20    10    38 1   
    21    11    12 ar  
    22    11    16 ar  
    23    12    13 ar  
    24    12    39 1   
    25    13    14 ar  
    26    13    40 1   
    27    14    15 ar  
    28    14    17 1   
    29    15    16 ar  
    30    15    41 1   
    31    16    42 1   
    32    17    43 1   
    33    18    19 1   
    34    18    21 1   
    35    18    44 1   
    36    19    20 1   
    37    19    45 1   
    38    19    46 1   
    39    20    22 1   
    40    20    47 1   
    41    22    23 1   
    42    22    24 2   
    43    22    25 2   
    44    23    26 1   
    45    26    27 ar  
    46    26    31 ar  
    47    27    28 ar  
    48    27    48 1   
    49    28    29 ar  
    50    28    32 1   
    51    29    30 ar  
    52    29    49 1   
    53    30    31 ar  
    54    30    50 1   
    55    31    51 1   
@<TRIPOS>SUBSTRUCTURE
     1 OBB         1 TEMP              0 ****  ****    0 ROOT
