@<TRIPOS>MOLECULE
OBD
   56    59     1     0     0
SMALL
bcc


@<TRIPOS>ATOM
      1 C10          1.8030    -1.9030     0.5790 cc         1 OBD       0.241600
      2 N12         -0.2630    -1.3810     0.7860 na         1 OBD       0.097400
      3 C13         -1.6400    -0.9480     0.6120 c3         1 OBD       0.072000
      4 C20         -3.0700     1.0930     0.2700 ca         1 OBD      -0.095300
      5 C21         -3.6660     1.3040     1.5380 ca         1 OBD      -0.127000
      6 C22         -4.9300     1.8090     1.6450 ca         1 OBD      -0.107000
      7 C24         -6.9870     2.6690     0.5670 ca         1 OBD      -0.115000
      8 C26         -7.0990     2.7710    -1.8390 ca         1 OBD      -0.120000
      9 C28         -5.0920     1.9310    -0.7840 ca         1 OBD      -0.037000
     10 O18         -3.9000    -4.8690    -0.5590 o          1 OBD      -0.081700
     11 N17         -3.0750    -4.1310    -0.9920 n2         1 OBD       0.074700
     12 O16         -2.1360    -3.7390     1.0980 o          1 OBD      -0.442100
     13 C14         -2.3650    -1.8420    -0.3800 c3         1 OBD      -0.183400
     14 C19         -1.6810     0.5260     0.1910 c3         1 OBD      -0.045100
     15 C29         -3.7810     1.4030    -0.8590 ca         1 OBD      -0.110000
     16 C27         -5.8340     2.2590    -1.9430 ca         1 OBD      -0.117000
     17 C25         -7.6810     2.9800    -0.5710 ca         1 OBD      -0.119000
     18 C23         -5.6790     2.1380     0.4900 ca         1 OBD      -0.034000
     19 C11          0.6940    -1.5440    -0.1430 cd         1 OBD      -0.229600
     20 N30          0.2130    -1.6110     1.9980 nd         1 OBD      -0.183800
     21 N31          1.4540    -1.9270     1.8840 nc         1 OBD      -0.353000
     22 C09          3.1870    -2.1880     0.1110 c3         1 OBD       0.086700
     23 N08          3.9990    -0.9880     0.1700 ns         1 OBD      -0.570900
     24 C06          5.0870    -0.8080    -0.6010 c          1 OBD       0.679700
     25 O07          5.4640    -1.6370    -1.4190 o          1 OBD      -0.606100
     26 C05          5.8180     0.4790    -0.4060 ca         1 OBD      -0.155600
     27 C04          7.1730     0.5270    -0.7280 ca         1 OBD      -0.085500
     28 C03          7.8930     1.6970    -0.5680 ca         1 OBD      -0.140500
     29 C02          7.2810     2.8620    -0.1040 ca         1 OBD      -0.053300
     30 C01          8.0650     4.1330     0.0380 c3         1 OBD      -0.051800
     31 C33          5.9230     2.8120     0.1990 ca         1 OBD      -0.140500
     32 C32          5.1990     1.6380     0.0540 ca         1 OBD      -0.085500
     33 H13         -2.0950    -1.0520     1.5980 h1         1 OBD       0.108700
     34 H21         -3.1070     1.0660     2.4360 ha         1 OBD       0.137000
     35 H22         -5.3710     1.9700     2.6220 ha         1 OBD       0.138000
     36 H24         -7.4330     2.8300     1.5420 ha         1 OBD       0.135000
     37 H26         -7.6580     3.0170    -2.7320 ha         1 OBD       0.134000
     38 H14         -3.3780    -1.4580    -0.5480 hc         1 OBD       0.093700
     39 H14A        -1.8980    -1.8270    -1.3700 hc         1 OBD       0.093700
     40 H19         -1.0150     1.0840     0.8540 hc         1 OBD       0.065200
     41 H19A        -1.2900     0.6350    -0.8240 hc         1 OBD       0.065200
     42 H29         -3.3390     1.2460    -1.8370 ha         1 OBD       0.129000
     43 H27         -5.3860     2.0980    -2.9160 ha         1 OBD       0.132000
     44 H25         -8.6810     3.3880    -0.5020 ha         1 OBD       0.135000
     45 H11          0.5360    -1.4060    -1.2000 h4         1 OBD       0.187000
     46 H09          3.6240    -2.9830     0.7200 h1         1 OBD       0.068200
     47 H09A         3.1640    -2.5450    -0.9170 h1         1 OBD       0.068200
     48 HN08         3.8500    -0.3710     0.9520 hn         1 OBD       0.322500
     49 H04          7.6700    -0.3620    -1.0930 ha         1 OBD       0.141500
     50 H03          8.9500     1.7080    -0.8080 ha         1 OBD       0.132500
     51 H01          8.2810     4.5670    -0.9400 hc         1 OBD       0.045033
     52 H01A         7.5210     4.8780     0.6170 hc         1 OBD       0.045033
     53 H01B         9.0220     3.9550     0.5280 hc         1 OBD       0.045033
     54 H33          5.4200     3.7050     0.5500 ha         1 OBD       0.132500
     55 H32          4.1400     1.6520     0.2810 ha         1 OBD       0.141500
     56 C15         -2.4920    -3.2580     0.0660 c          1 OBD       0.437100
@<TRIPOS>BOND
     1     1    19 2   
     2     1    21 1   
     3     1    22 1   
     4     2     3 1   
     5     2    19 1   
     6     2    20 1   
     7     3    13 1   
     8     3    14 1   
     9     3    33 1   
    10     4     5 ar  
    11     4    14 1   
    12     4    15 ar  
    13     5     6 ar  
    14     5    34 1   
    15     6    18 ar  
    16     6    35 1   
    17     7    17 ar  
    18     7    18 ar  
    19     7    36 1   
    20     8    16 ar  
    21     8    17 ar  
    22     8    37 1   
    23     9    15 ar  
    24     9    16 ar  
    25     9    18 ar  
    26    10    11 2   
    27    11    56 1   
    28    12    56 2   
    29    13    38 1   
    30    13    39 1   
    31    13    56 1   
    32    14    40 1   
    33    14    41 1   
    34    15    42 1   
    35    16    43 1   
    36    17    44 1   
    37    19    45 1   
    38    20    21 2   
    39    22    23 1   
    40    22    46 1   
    41    22    47 1   
    42    23    24 1   
    43    23    48 1   
    44    24    25 2   
    45    24    26 1   
    46    26    27 ar  
    47    26    32 ar  
    48    27    28 ar  
    49    27    49 1   
    50    28    29 ar  
    51    28    50 1   
    52    29    30 1   
    53    29    31 ar  
    54    30    51 1   
    55    30    52 1   
    56    30    53 1   
    57    31    32 ar  
    58    31    54 1   
    59    32    55 1   
@<TRIPOS>SUBSTRUCTURE
     1 OBD         1 TEMP              0 ****  ****    0 ROOT
