@<TRIPOS>MOLECULE
OBD
   56    59     1     0     0
SMALL
No Charge or Current Charge


@<TRIPOS>ATOM
      1 C10          1.6780    -1.4880     0.1170 cc         1 OBD       0.176300
      2 N12         -0.3500    -0.9880     0.6230 na         1 OBD       0.118800
      3 C13         -1.7860    -0.6380     0.6090 c3         1 OBD       0.101300
      4 C20         -3.4540     1.2520     0.1240 ca         1 OBD      -0.095300
      5 C21         -3.9380     1.6740     1.3760 ca         1 OBD      -0.109000
      6 C22         -5.2650     2.1170     1.5130 ca         1 OBD      -0.089000
      7 C24         -7.4500     2.5820     0.5280 ca         1 OBD      -0.097000
      8 C26         -7.8220     2.1830    -1.8460 ca         1 OBD      -0.102000
      9 C28         -5.6390     1.7200    -0.8630 ca         1 OBD      -0.037000
     10 O18         -1.3690    -5.1000     0.4480 o          1 OBD      -0.081700
     11 N17         -1.5720    -4.0000    -0.0470 n2         1 OBD       0.074700
     12 O16         -3.0400    -3.3700     1.6670 o          1 OBD      -0.442100
     13 C14         -2.6460    -1.7410    -0.0700 c3         1 OBD      -0.183400
     14 C19         -2.0160     0.7620    -0.0160 c3         1 OBD      -0.045100
     15 C29         -4.3090     1.2780    -0.9950 ca         1 OBD      -0.092000
     16 C27         -6.4940     1.7420    -1.9820 ca         1 OBD      -0.099000
     17 C25         -8.3000     2.6030    -0.5920 ca         1 OBD      -0.101000
     18 C23         -6.1200     2.1410     0.3960 ca         1 OBD      -0.034000
     19 C11          0.4950    -1.1390    -0.4550 cd         1 OBD      -0.197000
     20 N30          0.3200    -1.2440     1.7920 nd         1 OBD      -0.183800
     21 N31          1.5550    -1.5430     1.4760 nc         1 OBD      -0.353000
     22 C09          2.9890    -1.7780    -0.5680 c3         1 OBD       0.086700
     23 N08          4.0180    -0.7650    -0.2960 ns         1 OBD      -0.503900
     24 C06          5.2310    -0.6910    -0.9430 c          1 OBD       0.612700
     25 O07          5.5260    -1.4920    -1.8200 o          1 OBD      -0.606100
     26 C05          6.1670     0.4220    -0.5140 ca         1 OBD      -0.155600
     27 C04          7.4290     0.5470    -1.1400 ca         1 OBD      -0.067500
     28 C03          8.3200     1.5670    -0.7670 ca         1 OBD      -0.122500
     29 C02          7.9720     2.4840     0.2400 ca         1 OBD      -0.053300
     30 C01          8.9360     3.5900     0.6400 c3         1 OBD      -0.051800
     31 C33          6.7190     2.3710     0.8660 ca         1 OBD      -0.122500
     32 C32          5.8230     1.3530     0.4970 ca         1 OBD      -0.067500
     33 H13         -2.1050    -0.5760     1.6580 h1         1 OBD       0.108700
     34 H21         -3.2860     1.6610     2.2470 ha         1 OBD       0.119000
     35 H22         -5.6260     2.4400     2.4870 ha         1 OBD       0.120000
     36 H24         -7.8270     2.9080     1.4950 ha         1 OBD       0.117000
     37 H26         -8.4810     2.2000    -2.7120 ha         1 OBD       0.116000
     38 H14         -3.7030    -1.4620    -0.0020 hc         1 OBD       0.093700
     39 H14A        -2.3430    -1.8150    -1.1220 hc         1 OBD       0.093700
     40 H19         -1.3430     1.4800     0.4700 hc         1 OBD       0.065200
     41 H19A        -1.7180     0.7420    -1.0720 hc         1 OBD       0.065200
     42 H29         -3.9430     0.9510    -1.9660 ha         1 OBD       0.111000
     43 H27         -6.1320     1.4190    -2.9560 ha         1 OBD       0.114000
     44 H25         -9.3280     2.9440    -0.4890 ha         1 OBD       0.117000
     45 H11          0.2060    -0.9940    -1.4880 h4         1 OBD       0.169000
     46 H09          3.3590    -2.7570    -0.2360 h1         1 OBD       0.068200
     47 H09A         2.8200    -1.8310    -1.6520 h1         1 OBD       0.068200
     48 HN08         3.8380    -0.0820     0.4280 hn         1 OBD       0.322500
     49 H04          7.7250    -0.1500    -1.9220 ha         1 OBD       0.123500
     50 H03          9.2850     1.6440    -1.2640 ha         1 OBD       0.114500
     51 H01          8.7660     4.4920     0.0400 hc         1 OBD       0.045033
     52 H01A         8.8160     3.8630     1.6960 hc         1 OBD       0.045033
     53 H01B         9.9790     3.2830     0.4970 hc         1 OBD       0.045033
     54 H33          6.4350     3.0770     1.6440 ha         1 OBD       0.114500
     55 H32          4.8660     1.3040     1.0090 ha         1 OBD       0.123500
     56 C15         -2.4610    -3.0970     0.6220 c          1 OBD       0.437100
@<TRIPOS>BOND
     1     1    19 2   
     2     1    21 1   
     3     1    22 1   
     4     2     3 1   
     5     2    19 1   
     6     2    20 1   
     7     3    13 1   
     8     3    14 1   
     9     3    33 1   
    10     4     5 ar  
    11     4    14 1   
    12     4    15 ar  
    13     5     6 ar  
    14     5    34 1   
    15     6    18 ar  
    16     6    35 1   
    17     7    17 ar  
    18     7    18 ar  
    19     7    36 1   
    20     8    16 ar  
    21     8    17 ar  
    22     8    37 1   
    23     9    15 ar  
    24     9    16 ar  
    25     9    18 ar  
    26    10    11 2   
    27    11    56 1   
    28    12    56 2   
    29    13    38 1   
    30    13    39 1   
    31    13    56 1   
    32    14    40 1   
    33    14    41 1   
    34    15    42 1   
    35    16    43 1   
    36    17    44 1   
    37    19    45 1   
    38    20    21 2   
    39    22    23 1   
    40    22    46 1   
    41    22    47 1   
    42    23    24 1   
    43    23    48 1   
    44    24    25 2   
    45    24    26 1   
    46    26    27 ar  
    47    26    32 ar  
    48    27    28 ar  
    49    27    49 1   
    50    28    29 ar  
    51    28    50 1   
    52    29    30 1   
    53    29    31 ar  
    54    30    51 1   
    55    30    52 1   
    56    30    53 1   
    57    31    32 ar  
    58    31    54 1   
    59    32    55 1   
@<TRIPOS>SUBSTRUCTURE
     1 OBD         1 TEMP              0 ****  ****    0 ROOT
