@<TRIPOS>MOLECULE
OBE
   41    43     1     0     0
SMALL
abcg2


@<TRIPOS>ATOM
      1 C1           3.2770    -0.0710    -0.8890 c5         1 OBE       0.127300
      2 C2           1.8010    -0.4880    -0.9030 c6         1 OBE      -0.228700
      3 C3           0.9720     0.6190    -0.2340 c6         1 OBE       0.196300
      4 C4           1.5590     1.0670     1.1040 c6         1 OBE      -0.117400
      5 C5           3.0620     1.2920     0.9810 c5         1 OBE       0.127300
      6 C6           3.4340     2.2490    -0.1570 c5         1 OBE      -0.102400
      7 C7           3.5350     1.3480    -1.4070 c5         1 OBE      -0.105400
      8 C9          -2.6710     0.1820     0.0590 ca         1 OBE      -0.113600
      9 C10         -3.8300     0.9260     0.2510 ca         1 OBE      -0.097000
     10 C11         -5.0650     0.2890     0.3080 ca         1 OBE       0.118100
     11 C12         -5.1310    -1.0950     0.1660 ca         1 OBE      -0.177000
     12 C13         -3.9700    -1.8270    -0.0290 ca         1 OBE      -0.088000
     13 C14         -2.7330    -1.2040    -0.0830 ca         1 OBE      -0.079000
     14 C15          1.5820    -1.8540    -0.2080 c          1 OBE       0.728000
     15 C16          5.1340    -0.0740     0.7690 c3         1 OBE       0.091900
     16 N1           3.6830     0.0050     0.5470 nx         1 OBE      -0.731000
     17 O1          -0.3460     0.0950    -0.0660 os         1 OBE      -0.413100
     18 O2          -1.2890     2.1220    -0.0170 o          1 OBE      -0.504000
     19 O3           0.8340    -2.6700    -0.7430 o          1 OBE      -0.650500
     20 O4           2.2010    -2.0220     0.8870 o          1 OBE      -0.650500
     21 O5          -6.1550     1.0550     0.5010 oh         1 OBE      -0.534100
     22 H1           3.8840    -0.8240    -1.3920 hx         1 OBE       0.097700
     23 H2           1.4910    -0.5720    -1.9460 hc         1 OBE       0.093700
     24 H3           0.9250     1.4750    -0.9120 h1         1 OBE       0.053700
     25 H41          1.3600     0.3240     1.8780 hc         1 OBE       0.088200
     26 H42          1.0970     2.0010     1.4240 hc         1 OBE       0.088200
     27 H5           3.4780     1.5820     1.9440 hx         1 OBE       0.086700
     28 H61          2.6880     3.0360    -0.2620 hc         1 OBE       0.068700
     29 H62          4.3840     2.7390     0.0490 hc         1 OBE       0.068700
     30 H71          2.8140     1.6150    -2.1800 hc         1 OBE       0.068200
     31 H72          4.5220     1.4150    -1.8610 hc         1 OBE       0.068200
     32 H10         -3.7790     2.0020     0.3570 ha         1 OBE       0.145000
     33 H12         -6.0880    -1.6030     0.2060 ha         1 OBE       0.113000
     34 H13         -4.0360    -2.9010    -0.1400 ha         1 OBE       0.122000
     35 H14         -1.8390    -1.7910    -0.2430 ha         1 OBE       0.163000
     36 H161         5.3350     0.0460     1.8300 hx         1 OBE       0.072033
     37 H162         5.4860    -1.0510     0.4450 hx         1 OBE       0.072033
     38 H163         5.6570     0.6990     0.2110 hx         1 OBE       0.072033
     39 HN1          3.1830    -0.8490     0.9780 hn         1 OBE       0.583000
     40 HO5         -6.9520     0.5130     0.5170 ho         1 OBE       0.465000
     41 C8          -1.3820     0.9190    -0.0090 c          1 OBE       0.612700
@<TRIPOS>BOND
     1     1     2 1   
     2     1     7 1   
     3     1    16 1   
     4     1    22 1   
     5     2     3 1   
     6     2    14 1   
     7     2    23 1   
     8     3     4 1   
     9     3    17 1   
    10     3    24 1   
    11     4     5 1   
    12     4    25 1   
    13     4    26 1   
    14     5     6 1   
    15     5    16 1   
    16     5    27 1   
    17     6     7 1   
    18     6    28 1   
    19     6    29 1   
    20     7    30 1   
    21     7    31 1   
    22     8     9 ar  
    23     8    13 ar  
    24     8    41 1   
    25     9    10 ar  
    26     9    32 1   
    27    10    11 ar  
    28    10    21 1   
    29    11    12 ar  
    30    11    33 1   
    31    12    13 ar  
    32    12    34 1   
    33    13    35 1   
    34    14    19 1   
    35    14    20 1   
    36    15    16 1   
    37    15    36 1   
    38    15    37 1   
    39    15    38 1   
    40    16    39 1   
    41    17    41 1   
    42    18    41 2   
    43    21    40 1   
@<TRIPOS>SUBSTRUCTURE
     1 OBE         1 TEMP              0 ****  ****    0 ROOT
