@<TRIPOS>MOLECULE
OBE
   41    43     1     0     0
SMALL
No Charge or Current Charge


@<TRIPOS>ATOM
      1 C1           3.3840    -0.0990    -0.9020 c5         1 OBE       0.127300
      2 C2           1.8840    -0.4960    -0.9960 c6         1 OBE      -0.228700
      3 C3           0.9680     0.5920    -0.3810 c6         1 OBE       0.196300
      4 C4           1.4990     1.0660     0.9990 c6         1 OBE      -0.117400
      5 C5           3.0280     1.3250     0.9770 c5         1 OBE       0.127300
      6 C6           3.5020     2.2740    -0.1650 c5         1 OBE      -0.102400
      7 C7           3.7200     1.3370    -1.4100 c5         1 OBE      -0.105400
      8 C9          -2.7660     0.2200     0.0590 ca         1 OBE      -0.113600
      9 C10         -3.9490     0.9590     0.2840 ca         1 OBE      -0.097000
     10 C11         -5.1880     0.3100     0.4070 ca         1 OBE       0.118100
     11 C12         -5.2650    -1.0870     0.3070 ca         1 OBE      -0.177000
     12 C13         -4.0970    -1.8360     0.0830 ca         1 OBE      -0.088000
     13 C14         -2.8550    -1.1900    -0.0410 ca         1 OBE      -0.079000
     14 C15          1.5940    -1.8820    -0.3950 c          1 OBE       0.728000
     15 C16          5.2030    -0.0750     0.9310 c3         1 OBE       0.091900
     16 N1           3.7210     0.0390     0.5670 nx         1 OBE      -0.731000
     17 O1          -0.3780     0.0950    -0.2810 os         1 OBE      -0.413100
     18 O2          -1.3330     2.1560    -0.0020 o          1 OBE      -0.504000
     19 O3           1.2750    -2.7630    -1.1780 o          1 OBE      -0.650500
     20 O4           2.0800    -2.1160     0.7050 o          1 OBE      -0.650500
     21 O5          -6.3180     1.0420     0.6240 oh         1 OBE      -0.534100
     22 H1           4.0060    -0.8730    -1.3650 hx         1 OBE       0.097700
     23 H2           1.6060    -0.5580    -2.0560 hc         1 OBE       0.093700
     24 H3           0.9630     1.4520    -1.0680 h1         1 OBE       0.053700
     25 H41          1.2660     0.3210     1.7700 hc         1 OBE       0.088200
     26 H42          0.9880     1.9890     1.3000 hc         1 OBE       0.088200
     27 H5           3.3690     1.6410     1.9670 hx         1 OBE       0.086700
     28 H61          2.7830     3.0770    -0.3610 hc         1 OBE       0.068700
     29 H62          4.4430     2.7610     0.1140 hc         1 OBE       0.068700
     30 H71          3.1040     1.6260    -2.2690 hc         1 OBE       0.068200
     31 H72          4.7620     1.3870    -1.7450 hc         1 OBE       0.068200
     32 H10         -3.9110     2.0430     0.3650 ha         1 OBE       0.145000
     33 H12         -6.2200    -1.5980     0.4010 ha         1 OBE       0.113000
     34 H13         -4.1540    -2.9200     0.0050 ha         1 OBE       0.122000
     35 H14         -1.9660    -1.7940    -0.2140 ha         1 OBE       0.163000
     36 H161         5.3200     0.0120     2.0140 hx         1 OBE       0.072033
     37 H162         5.5870    -1.0420     0.5970 hx         1 OBE       0.072033
     38 H163         5.7590     0.7260     0.4390 hx         1 OBE       0.072033
     39 HN1          3.2190    -0.7670     1.0310 hn         1 OBE       0.583000
     40 HO5         -7.0810     0.4280     0.6830 ho         1 OBE       0.465000
     41 C8          -1.4400     0.9370    -0.0700 c          1 OBE       0.612700
@<TRIPOS>BOND
     1     1     2 1   
     2     1     7 1   
     3     1    16 1   
     4     1    22 1   
     5     2     3 1   
     6     2    14 1   
     7     2    23 1   
     8     3     4 1   
     9     3    17 1   
    10     3    24 1   
    11     4     5 1   
    12     4    25 1   
    13     4    26 1   
    14     5     6 1   
    15     5    16 1   
    16     5    27 1   
    17     6     7 1   
    18     6    28 1   
    19     6    29 1   
    20     7    30 1   
    21     7    31 1   
    22     8     9 ar  
    23     8    13 ar  
    24     8    41 1   
    25     9    10 ar  
    26     9    32 1   
    27    10    11 ar  
    28    10    21 1   
    29    11    12 ar  
    30    11    33 1   
    31    12    13 ar  
    32    12    34 1   
    33    13    35 1   
    34    14    19 1   
    35    14    20 1   
    36    15    16 1   
    37    15    36 1   
    38    15    37 1   
    39    15    38 1   
    40    16    39 1   
    41    17    41 1   
    42    18    41 2   
    43    21    40 1   
@<TRIPOS>SUBSTRUCTURE
     1 OBE         1 TEMP              0 ****  ****    0 ROOT
