@<TRIPOS>MOLECULE
OBF
   15    14     1     0     0
SMALL
abcg2


@<TRIPOS>ATOM
      1 N            9.4470    -2.7060    -2.3460 n8         1 OBF      -0.997200
      2 CA           9.5760    -1.3230    -2.7670 c3         1 OBF       0.022500
      3 CB           9.8380    -1.1000    -4.2710 c3         1 OBF      -0.159400
      4 CG          11.2300    -1.4480    -4.7150 c3         1 OBF       0.159300
      5 FG1         11.4000    -1.1540    -6.0400 f          1 OBF      -0.150000
      6 FG2         11.4890    -2.7900    -4.6030 f          1 OBF      -0.150000
      7 C            8.3020    -0.5170    -2.3930 c          1 OBF       0.725000
      8 O            8.4460     0.7180    -2.3070 o          1 OBF      -0.725500
      9 HN          10.1330    -3.2950    -2.7940 hn         1 OBF       0.386500
     10 HA          10.4130    -0.8710    -2.2200 h1         1 OBF       0.043700
     11 H1B          9.1070    -1.6530    -4.8690 hc         1 OBF       0.068700
     12 H2B          9.7080    -0.0380    -4.4950 hc         1 OBF       0.068700
     13 HG          12.0000    -0.9180    -4.1500 h2         1 OBF       0.046700
     14 HNA          8.5340    -3.0420    -2.6270 hn         1 OBF       0.386500
     15 OXT          7.2470    -1.1630    -2.2510 o          1 OBF      -0.725500
@<TRIPOS>BOND
     1     1     2 1   
     2     1     9 1   
     3     1    14 1   
     4     2     3 1   
     5     2     7 1   
     6     2    10 1   
     7     3     4 1   
     8     3    11 1   
     9     3    12 1   
    10     4     5 1   
    11     4     6 1   
    12     4    13 1   
    13     7     8 1   
    14     7    15 1   
@<TRIPOS>SUBSTRUCTURE
     1 OBF         1 TEMP              0 ****  ****    0 ROOT
