@<TRIPOS>MOLECULE
OBF
   15    14     1     0     0
SMALL
No Charge or Current Charge


@<TRIPOS>ATOM
      1 N            9.5730    -2.6750    -2.3140 n8         1 OBF      -0.997200
      2 CA           9.5350    -1.2400    -2.7670 c3         1 OBF       0.022500
      3 CB           9.7980    -1.1610    -4.2960 c3         1 OBF      -0.159400
      4 CG          11.2320    -1.5400    -4.7370 c3         1 OBF       0.159300
      5 FG1         11.4010    -1.2320    -6.0430 f          1 OBF      -0.150000
      6 FG2         11.4370    -2.8720    -4.6160 f          1 OBF      -0.150000
      7 C            8.2440    -0.4060    -2.3630 c          1 OBF       0.725000
      8 O            8.3870     0.5720    -1.6400 o          1 OBF      -0.725500
      9 HN          10.3390    -3.1530    -2.8030 hn         1 OBF       0.386500
     10 HA          10.3810    -0.7360    -2.2770 h1         1 OBF       0.043700
     11 H1B          9.0680    -1.7760    -4.8370 hc         1 OBF       0.068700
     12 H2B          9.6190    -0.1260    -4.6140 hc         1 OBF       0.068700
     13 HG          11.9780    -1.0000    -4.1430 h2         1 OBF       0.046700
     14 HNA          8.7300    -3.1490    -2.6620 hn         1 OBF       0.386500
     15 OXT          7.1480    -0.8070    -2.7370 o          1 OBF      -0.725500
@<TRIPOS>BOND
     1     1     2 1   
     2     1     9 1   
     3     1    14 1   
     4     2     3 1   
     5     2     7 1   
     6     2    10 1   
     7     3     4 1   
     8     3    11 1   
     9     3    12 1   
    10     4     5 1   
    11     4     6 1   
    12     4    13 1   
    13     7     8 1   
    14     7    15 1   
@<TRIPOS>SUBSTRUCTURE
     1 OBF         1 TEMP              0 ****  ****    0 ROOT
