@<TRIPOS>MOLECULE
OBG
   29    31     1     0     0
SMALL
bcc


@<TRIPOS>ATOM
      1 C1          -2.6040    -1.7000    -0.0290 ca         1 OBG       0.951900
      2 N1          -2.9750    -2.9990    -0.0840 nv         1 OBG      -0.938500
      3 O1           0.4540     0.0330    -0.0060 os         1 OBG      -0.403100
      4 C2          -0.8400    -0.2320    -0.0120 ca         1 OBG       0.784600
      5 N2          -1.2740    -1.4700    -0.0230 nb         1 OBG      -0.886000
      6 C3           1.3750    -1.0680    -0.0170 c3         1 OBG       0.192700
      7 N3          -1.6220     2.2020     0.0090 nc         1 OBG      -0.507100
      8 C4           2.7520    -0.4780    -0.0170 ca         1 OBG      -0.101300
      9 N4          -3.7730     1.6280     0.0010 na         1 OBG      -0.369000
     10 C5           3.3870    -0.1710     1.1830 ca         1 OBG      -0.099000
     11 N5          -3.5650    -0.7820    -0.0210 nb         1 OBG      -0.805000
     12 C6           4.6510     0.4030     1.1850 ca         1 OBG      -0.134000
     13 C7           5.2910     0.6790    -0.0170 ca         1 OBG      -0.114000
     14 C8           4.6640     0.3750    -1.2180 ca         1 OBG      -0.134000
     15 C9           3.4000    -0.1990    -1.2160 ca         1 OBG      -0.099000
     16 C10         -1.7480     0.8340    -0.0060 ca         1 OBG      -0.230200
     17 C11         -2.8470     2.6330     0.0130 cd         1 OBG       0.384700
     18 C12         -3.0870     0.4560    -0.0100 ca         1 OBG       0.483800
     19 HN1         -2.2910    -3.6940     0.1580 hn         1 OBG       0.434800
     20 HN1A        -3.9310    -3.2240     0.1320 hn         1 OBG       0.434800
     21 H3           1.2130    -1.6960     0.8610 h1         1 OBG       0.057200
     22 H3A          1.2080    -1.6830    -0.9040 h1         1 OBG       0.057200
     23 HN4         -4.7750     1.7410     0.0060 hn         1 OBG       0.316700
     24 H5           2.8950    -0.3880     2.1230 ha         1 OBG       0.132500
     25 H6           5.1370     0.6320     2.1240 ha         1 OBG       0.132000
     26 H7           6.2770     1.1250    -0.0170 ha         1 OBG       0.130000
     27 H8           5.1590     0.5840    -2.1580 ha         1 OBG       0.132000
     28 H9           2.9170    -0.4360    -2.1570 ha         1 OBG       0.132500
     29 H11         -3.1470     3.6700     0.0250 h5         1 OBG       0.066800
@<TRIPOS>BOND
     1     1     2 1   
     2     1     5 ar  
     3     1    11 ar  
     4     2    19 1   
     5     2    20 1   
     6     3     4 1   
     7     3     6 1   
     8     4     5 ar  
     9     4    16 ar  
    10     6     8 1   
    11     6    21 1   
    12     6    22 1   
    13     7    16 1   
    14     7    17 2   
    15     8    10 ar  
    16     8    15 ar  
    17     9    17 1   
    18     9    18 1   
    19     9    23 1   
    20    10    12 ar  
    21    10    24 1   
    22    11    18 ar  
    23    12    13 ar  
    24    12    25 1   
    25    13    14 ar  
    26    13    26 1   
    27    14    15 ar  
    28    14    27 1   
    29    15    28 1   
    30    16    18 ar  
    31    17    29 1   
@<TRIPOS>SUBSTRUCTURE
     1 OBG         1 TEMP              0 ****  ****    0 ROOT
