@<TRIPOS>MOLECULE
OBG
   29    31     1     0     0
SMALL
No Charge or Current Charge


@<TRIPOS>ATOM
      1 C1          -2.6800    -1.7390    -0.0330 ca         1 OBG       0.425900
      2 N1          -3.1090    -3.0190    -0.0420 nv         1 OBG      -1.048900
      3 O1           0.4420    -0.0150    -0.0170 os         1 OBG      -0.426300
      4 C2          -0.9090    -0.2970    -0.0200 ca         1 OBG       0.456300
      5 N2          -1.3510    -1.5760    -0.0290 nb         1 OBG      -0.360000
      6 C3           1.4170    -1.0730    -0.0250 c3         1 OBG       0.215900
      7 N3          -1.6100     2.1460    -0.0040 nc         1 OBG      -0.507100
      8 C4           2.8070    -0.4490    -0.0200 ca         1 OBG      -0.101300
      9 N4          -3.8520     1.6580    -0.0090 na         1 OBG      -0.419300
     10 C5           3.4550    -0.1670     1.1990 ca         1 OBG      -0.081000
     11 N5          -3.6310    -0.7910    -0.0260 nb         1 OBG      -0.279000
     12 C6           4.7380     0.4080     1.2040 ca         1 OBG      -0.116000
     13 C7           5.3810     0.7050    -0.0100 ca         1 OBG      -0.096000
     14 C8           4.7380     0.4280    -1.2290 ca         1 OBG      -0.116000
     15 C9           3.4550    -0.1470    -1.2340 ca         1 OBG      -0.081000
     16 C10         -1.8380     0.7730    -0.0140 ca         1 OBG      -0.099600
     17 C11         -2.8580     2.6460    -0.0020 cd         1 OBG       0.384700
     18 C12         -3.1770     0.4720    -0.0170 ca         1 OBG       0.155500
     19 HN1         -2.4380    -3.7490     0.1810 hn         1 OBG       0.490000
     20 HN1A        -4.0820    -3.2050     0.1850 hn         1 OBG       0.490000
     21 H3           1.3010    -1.7170     0.8570 h1         1 OBG       0.057200
     22 H3A          1.3020    -1.7020    -0.9190 h1         1 OBG       0.057200
     23 HN4         -4.8530     1.8030    -0.0090 hn         1 OBG       0.367000
     24 H5           2.9630    -0.3920     2.1440 ha         1 OBG       0.114500
     25 H6           5.2330     0.6230     2.1480 ha         1 OBG       0.114000
     26 H7           6.3730     1.1500    -0.0060 ha         1 OBG       0.112000
     27 H8           5.2340     0.6590    -2.1690 ha         1 OBG       0.114000
     28 H9           2.9640    -0.3560    -2.1820 ha         1 OBG       0.114500
     29 H11         -3.1160     3.6990     0.0060 h5         1 OBG       0.066800
@<TRIPOS>BOND
     1     1     2 1   
     2     1     5 ar  
     3     1    11 ar  
     4     2    19 1   
     5     2    20 1   
     6     3     4 1   
     7     3     6 1   
     8     4     5 ar  
     9     4    16 ar  
    10     6     8 1   
    11     6    21 1   
    12     6    22 1   
    13     7    16 1   
    14     7    17 2   
    15     8    10 ar  
    16     8    15 ar  
    17     9    17 1   
    18     9    18 1   
    19     9    23 1   
    20    10    12 ar  
    21    10    24 1   
    22    11    18 ar  
    23    12    13 ar  
    24    12    25 1   
    25    13    14 ar  
    26    13    26 1   
    27    14    15 ar  
    28    14    27 1   
    29    15    28 1   
    30    16    18 ar  
    31    17    29 1   
@<TRIPOS>SUBSTRUCTURE
     1 OBG         1 TEMP              0 ****  ****    0 ROOT
