@<TRIPOS>MOLECULE
OBH
   53    57     1     0     0
SMALL
abcg2


@<TRIPOS>ATOM
      1 CAN         -3.9900    -1.0400    -0.1010 ca         1 OBH      -0.056000
      2 CAJ         -5.0420    -1.6810     0.5280 ca         1 OBH      -0.179000
      3 CAW         -4.8540    -2.9370     1.1050 ca         1 OBH       0.146100
      4 OAC         -5.8410    -3.6040     1.7310 oh         1 OBH      -0.531100
      5 CAK         -3.6010    -3.5400     1.0300 ca         1 OBH      -0.179000
      6 CAO         -2.5600    -2.8920     0.3890 ca         1 OBH      -0.056000
      7 CAZ         -2.7230    -1.6240    -0.1780 ca         1 OBH      -0.074800
      8 CAU         -1.6190    -0.9770    -0.8720 ce         1 OBH      -0.071400
      9 CAV         -1.2940     0.3170    -1.0410 cf         1 OBH      -0.072400
     10 CBA         -1.8220     1.5460    -0.4570 ca         1 OBH      -0.081800
     11 CAP         -2.2520     1.6000     0.8700 ca         1 OBH      -0.053500
     12 CAL         -2.7350     2.7720     1.4250 ca         1 OBH      -0.179500
     13 CAX         -2.7960     3.9340     0.6570 ca         1 OBH       0.148100
     14 OAD         -3.2590     5.1010     1.1410 oh         1 OBH      -0.530100
     15 CAM         -2.3550     3.9050    -0.6640 ca         1 OBH      -0.179500
     16 CAQ         -1.8720     2.7260    -1.2040 ca         1 OBH      -0.053500
     17 CBC         -0.0070     0.2830    -1.8500 c5         1 OBH       0.213500
     18 OAS         -0.1360    -0.8930    -2.6100 os         1 OBH      -0.403000
     19 CBB         -0.4860    -1.7460    -1.5340 c5         1 OBH       0.182500
     20 CAR          0.7590    -1.6200    -0.6190 c5         1 OBH      -0.070400
     21 CBD          1.0820    -0.1280    -0.8080 c5         1 OBH      -0.372700
     22 SBE          2.7180     0.1640    -1.4730 s6         1 OBH       1.333700
     23 OAA          2.9400    -0.6420    -2.6540 o          1 OBH      -0.527500
     24 OAB          2.9240     1.6000    -1.5460 o          1 OBH      -0.527500
     25 OAT          3.6800    -0.4720    -0.3680 os         1 OBH      -0.567700
     26 CAY          3.9310     0.2460     0.8970 c6         1 OBH       0.299700
     27 CAH          3.9010    -0.7920     1.9660 c2         1 OBH      -0.242200
     28 CAF          4.9550    -1.0750     2.7230 c2         1 OBH      -0.172200
     29 CAE          6.2690    -0.3850     2.5950 c6         1 OBH      -0.031000
     30 CAG          6.2850     0.6660     1.5400 c2         1 OBH      -0.172200
     31 CAI          5.2360     0.9570     0.7770 c2         1 OBH      -0.242200
     32 H1          -4.1700    -0.0740    -0.5540 ha         1 OBH       0.118500
     33 H2          -6.0160    -1.2060     0.5580 ha         1 OBH       0.123000
     34 H3          -6.6570    -3.0910     1.7160 ho         1 OBH       0.467000
     35 H4          -3.4450    -4.5170     1.4680 ha         1 OBH       0.123000
     36 H5          -1.5980    -3.3880     0.3450 ha         1 OBH       0.118500
     37 H6          -2.2020     0.7130     1.4890 ha         1 OBH       0.119500
     38 H7          -3.0560     2.7840     2.4600 ha         1 OBH       0.124000
     39 H8          -3.5450     4.9970     2.0560 ho         1 OBH       0.466000
     40 H9          -2.3910     4.8050    -1.2650 ha         1 OBH       0.124000
     41 H10         -1.5400     2.7270    -2.2350 ha         1 OBH       0.119500
     42 H11          0.2180     1.1540    -2.4650 h1         1 OBH       0.114700
     43 H12         -0.7070    -2.7550    -1.8800 h1         1 OBH       0.107700
     44 H13          0.5580    -1.8680     0.4220 hc         1 OBH       0.068200
     45 H14          1.5560    -2.2760    -0.9710 hc         1 OBH       0.068200
     46 H15          1.0200     0.4700     0.1030 h1         1 OBH       0.105700
     47 H18          2.9630    -1.3150     2.1120 ha         1 OBH       0.191000
     48 H19          4.8720    -1.8380     3.4880 ha         1 OBH       0.180500
     49 H20          6.5510     0.0540     3.5590 hc         1 OBH       0.068200
     50 H21          7.0560    -1.1230     2.3980 hc         1 OBH       0.068200
     51 H22          7.2080     1.2190     1.4090 ha         1 OBH       0.180500
     52 H23          5.2970     1.7450     0.0360 ha         1 OBH       0.191000
     53 H24          3.1190     0.9650     1.0480 h1         1 OBH       0.056700
@<TRIPOS>BOND
     1     1     2 ar  
     2     1     7 ar  
     3     1    32 1   
     4     2     3 ar  
     5     2    33 1   
     6     3     4 1   
     7     3     5 ar  
     8     4    34 1   
     9     5     6 ar  
    10     5    35 1   
    11     6     7 ar  
    12     6    36 1   
    13     7     8 1   
    14     8     9 2   
    15     8    19 1   
    16     9    10 1   
    17     9    17 1   
    18    10    11 ar  
    19    10    16 ar  
    20    11    12 ar  
    21    11    37 1   
    22    12    13 ar  
    23    12    38 1   
    24    13    14 1   
    25    13    15 ar  
    26    14    39 1   
    27    15    16 ar  
    28    15    40 1   
    29    16    41 1   
    30    17    18 1   
    31    17    21 1   
    32    17    42 1   
    33    18    19 1   
    34    19    20 1   
    35    19    43 1   
    36    20    21 1   
    37    20    44 1   
    38    20    45 1   
    39    21    22 1   
    40    21    46 1   
    41    22    23 2   
    42    22    24 2   
    43    22    25 1   
    44    25    26 1   
    45    26    27 1   
    46    26    31 1   
    47    26    53 1   
    48    27    28 2   
    49    27    47 1   
    50    28    29 1   
    51    28    48 1   
    52    29    30 1   
    53    29    49 1   
    54    29    50 1   
    55    30    31 2   
    56    30    51 1   
    57    31    52 1   
@<TRIPOS>SUBSTRUCTURE
     1 OBH         1 TEMP              0 ****  ****    0 ROOT
