@<TRIPOS>MOLECULE
OBH
   53    57     1     0     0
SMALL
No Charge or Current Charge


@<TRIPOS>ATOM
      1 CAN         -4.0410    -1.0330    -0.2660 ca         1 OBH      -0.056000
      2 CAJ         -5.1620    -1.6370     0.3290 ca         1 OBH      -0.179000
      3 CAW         -5.0190    -2.8470     1.0260 ca         1 OBH       0.146100
      4 OAC         -6.0990    -3.4410     1.6050 oh         1 OBH      -0.531100
      5 CAK         -3.7590    -3.4540     1.1240 ca         1 OBH      -0.179000
      6 CAO         -2.6360    -2.8510     0.5300 ca         1 OBH      -0.056000
      7 CAZ         -2.7690    -1.6300    -0.1620 ca         1 OBH      -0.074800
      8 CAU         -1.5830    -0.9940    -0.8020 ce         1 OBH      -0.071400
      9 CAV         -1.2430     0.3260    -0.9290 cf         1 OBH      -0.072400
     10 CBA         -1.8280     1.5630    -0.3700 ca         1 OBH      -0.081800
     11 CAP         -2.4760     1.5410     0.8820 ca         1 OBH      -0.053500
     12 CAL         -3.0260     2.7170     1.4220 ca         1 OBH      -0.179500
     13 CAX         -2.9260     3.9260     0.7170 ca         1 OBH       0.148100
     14 OAD         -3.4560     5.0700     1.2330 oh         1 OBH      -0.530100
     15 CAM         -2.2760     3.9600    -0.5240 ca         1 OBH      -0.179500
     16 CAQ         -1.7260     2.7850    -1.0660 ca         1 OBH      -0.053500
     17 CBC          0.0750     0.2950    -1.7360 c5         1 OBH       0.213500
     18 OAS         -0.0970    -0.8650    -2.5440 os         1 OBH      -0.403000
     19 CBB         -0.4790    -1.7840    -1.5230 c5         1 OBH       0.182500
     20 CAR          0.7490    -1.7080    -0.5530 c5         1 OBH      -0.070400
     21 CBD          1.1470    -0.1840    -0.7200 c5         1 OBH      -0.372700
     22 SBE          2.8210     0.0060    -1.5400 s6         1 OBH       1.333700
     23 OAA          2.9230    -0.8650    -2.7180 o          1 OBH      -0.527500
     24 OAB          3.1150     1.4380    -1.6730 o          1 OBH      -0.527500
     25 OAT          3.8110    -0.6150    -0.3810 os         1 OBH      -0.567700
     26 CAY          3.9960     0.1070     0.8400 c6         1 OBH       0.299700
     27 CAH          4.1410    -0.9100     1.9580 c2         1 OBH      -0.242200
     28 CAF          5.2580    -1.0730     2.6900 c2         1 OBH      -0.172200
     29 CAE          6.5160    -0.2430     2.4870 c6         1 OBH      -0.031000
     30 CAG          6.3400     0.8520     1.4460 c2         1 OBH      -0.172200
     31 CAI          5.2190     1.0060     0.7190 c2         1 OBH      -0.242200
     32 H1          -4.1610    -0.1010    -0.8140 ha         1 OBH       0.118500
     33 H2          -6.1360    -1.1620     0.2420 ha         1 OBH       0.123000
     34 H3          -6.8880    -2.8820     1.4350 ho         1 OBH       0.467000
     35 H4          -3.6490    -4.3920     1.6610 ha         1 OBH       0.123000
     36 H5          -1.6640    -3.3300     0.6160 ha         1 OBH       0.118500
     37 H6          -2.5430     0.6150     1.4470 ha         1 OBH       0.119500
     38 H7          -3.5220     2.6800     2.3890 ha         1 OBH       0.124000
     39 H8          -3.8660     4.8590     2.0990 ho         1 OBH       0.466000
     40 H9          -2.1990     4.8970    -1.0690 ha         1 OBH       0.124000
     41 H10         -1.2350     2.8300    -2.0350 ha         1 OBH       0.119500
     42 H11          0.3070     1.1950    -2.3250 h1         1 OBH       0.114700
     43 H12         -0.7520    -2.7770    -1.9070 h1         1 OBH       0.107700
     44 H13          0.4800    -1.9600     0.4790 hc         1 OBH       0.068200
     45 H14          1.5420    -2.4020    -0.8570 hc         1 OBH       0.068200
     46 H15          1.1480     0.3920     0.2100 h1         1 OBH       0.105700
     47 H18          3.2640    -1.5300     2.1400 ha         1 OBH       0.191000
     48 H19          5.3000    -1.8270     3.4790 ha         1 OBH       0.180500
     49 H20          6.8050     0.2130     3.4440 hc         1 OBH       0.068200
     50 H21          7.3460    -0.9000     2.1920 hc         1 OBH       0.068200
     51 H22          7.1850     1.5320     1.3150 ha         1 OBH       0.180500
     52 H23          5.1430     1.8160    -0.0060 ha         1 OBH       0.191000
     53 H24          3.1130     0.7260     1.0560 h1         1 OBH       0.056700
@<TRIPOS>BOND
     1     1     2 ar  
     2     1     7 ar  
     3     1    32 1   
     4     2     3 ar  
     5     2    33 1   
     6     3     4 1   
     7     3     5 ar  
     8     4    34 1   
     9     5     6 ar  
    10     5    35 1   
    11     6     7 ar  
    12     6    36 1   
    13     7     8 1   
    14     8     9 2   
    15     8    19 1   
    16     9    10 1   
    17     9    17 1   
    18    10    11 ar  
    19    10    16 ar  
    20    11    12 ar  
    21    11    37 1   
    22    12    13 ar  
    23    12    38 1   
    24    13    14 1   
    25    13    15 ar  
    26    14    39 1   
    27    15    16 ar  
    28    15    40 1   
    29    16    41 1   
    30    17    18 1   
    31    17    21 1   
    32    17    42 1   
    33    18    19 1   
    34    19    20 1   
    35    19    43 1   
    36    20    21 1   
    37    20    44 1   
    38    20    45 1   
    39    21    22 1   
    40    21    46 1   
    41    22    23 2   
    42    22    24 2   
    43    22    25 1   
    44    25    26 1   
    45    26    27 1   
    46    26    31 1   
    47    26    53 1   
    48    27    28 2   
    49    27    47 1   
    50    28    29 1   
    51    28    48 1   
    52    29    30 1   
    53    29    49 1   
    54    29    50 1   
    55    30    31 2   
    56    30    51 1   
    57    31    52 1   
@<TRIPOS>SUBSTRUCTURE
     1 OBH         1 TEMP              0 ****  ****    0 ROOT
