@<TRIPOS>MOLECULE
OBJ
   27    27     1     0     0
SMALL
No Charge or Current Charge


@<TRIPOS>ATOM
      1 C1         -26.2570    -7.1770    14.3570 c3         1 OBJ       0.049600
      2 C2         -26.9020    -6.6550    13.0540 c3         1 OBJ       0.112000
      3 C3         -29.2290    -7.4910    12.5130 c          1 OBJ       0.575100
      4 C4         -30.0120    -8.6700    11.8940 c3         1 OBJ       0.066600
      5 C5         -28.5870    -7.4110     7.0880 ca         1 OBJ       0.083000
      6 S1         -27.4630    -7.6750    15.6810 sh         1 OBJ      -0.421800
      7 C10        -28.2890    -9.2760     8.6280 ca         1 OBJ      -0.136000
      8 C6         -28.0300    -8.6710     7.3870 ca         1 OBJ       0.151000
      9 C7         -29.0980    -8.6350     9.5790 ca         1 OBJ       0.137100
     10 C8         -29.6610    -7.3750     9.2780 ca         1 OBJ      -0.180000
     11 C9         -29.4020    -6.7680     8.0350 ca         1 OBJ      -0.059000
     12 N1         -27.8540    -7.6110    12.4730 ns         1 OBJ      -0.496900
     13 O1         -29.7870    -6.5180    13.0050 o          1 OBJ      -0.584100
     14 O2         -29.3110    -9.2820    10.7800 os         1 OBJ      -0.340100
     15 Cl2        -27.0030    -9.5120     6.2240 cl         1 OBJ      -0.166000
     16 H1         -25.6370    -8.0520    14.1200 h1         1 OBJ       0.061700
     17 H2         -25.5970    -6.4010    14.7640 h1         1 OBJ       0.061700
     18 H3         -26.1130    -6.4530    12.3180 h1         1 OBJ       0.068700
     19 H4         -27.4100    -5.7040    13.2620 h1         1 OBJ       0.068700
     20 H5         -31.0060    -8.3160    11.5960 h1         1 OBJ       0.089200
     21 H6         -30.1460    -9.4060    12.6950 h1         1 OBJ       0.089200
     22 H14        -27.8570   -10.2470     8.8560 ha         1 OBJ       0.145000
     23 H15        -30.3000    -6.8550     9.9850 ha         1 OBJ       0.136000
     24 H16        -29.8350    -5.7970     7.8030 ha         1 OBJ       0.134000
     25 H17        -27.4930    -8.4470    12.0280 hn         1 OBJ       0.325500
     26 H7         -26.5350    -8.0550    16.5940 hs         1 OBJ       0.199800
     27 Cl1        -28.2830    -6.6220     5.5400 cl         1 OBJ      -0.169000
@<TRIPOS>BOND
     1     1     2 1   
     2     1     6 1   
     3     1    16 1   
     4     1    17 1   
     5     2    12 1   
     6     2    18 1   
     7     2    19 1   
     8     3     4 1   
     9     3    12 1   
    10     3    13 2   
    11     4    14 1   
    12     4    20 1   
    13     4    21 1   
    14     5     8 ar  
    15     5    11 ar  
    16     5    27 1   
    17     6    26 1   
    18     7     8 ar  
    19     7     9 ar  
    20     7    22 1   
    21     8    15 1   
    22     9    10 ar  
    23     9    14 1   
    24    10    11 ar  
    25    10    23 1   
    26    11    24 1   
    27    12    25 1   
@<TRIPOS>SUBSTRUCTURE
     1 OBJ         1 TEMP              0 ****  ****    0 ROOT
