@<TRIPOS>MOLECULE
OBJ
   27    27     1     0     0
SMALL
abcg2


@<TRIPOS>ATOM
      1 C1         -26.3020    -7.1610    14.3550 c3         1 OBJ       0.049600
      2 C2         -26.9650    -6.5800    13.1160 c3         1 OBJ       0.112000
      3 C3         -29.1540    -7.5390    12.5590 c          1 OBJ       0.575100
      4 C4         -29.8830    -8.6540    11.8190 c3         1 OBJ       0.066600
      5 C5         -28.6360    -7.4670     7.0900 ca         1 OBJ       0.083000
      6 S1         -27.5610    -7.6170    15.5950 sh         1 OBJ      -0.421800
      7 C10        -28.3450    -9.3160     8.6070 ca         1 OBJ      -0.136000
      8 C6         -28.1560    -8.7450     7.3620 ca         1 OBJ       0.151000
      9 C7         -29.0200    -8.6120     9.6020 ca         1 OBJ       0.137100
     10 C8         -29.5010    -7.3330     9.3380 ca         1 OBJ      -0.180000
     11 C9         -29.3040    -6.7750     8.0840 ca         1 OBJ      -0.059000
     12 N1         -27.8210    -7.5200    12.4310 ns         1 OBJ      -0.496900
     13 O1         -29.7980    -6.7590    13.2410 o          1 OBJ      -0.584100
     14 O2         -29.1530    -9.2600    10.7780 os         1 OBJ      -0.340100
     15 CL2        -27.3220    -9.6400     6.1510 cl         1 OBJ      -0.166000
     16 H1         -25.7180    -8.0430    14.0930 h1         1 OBJ       0.061700
     17 H2         -25.6260    -6.4160    14.7750 h1         1 OBJ       0.061700
     18 H3         -26.1790    -6.2650    12.4270 h1         1 OBJ       0.068700
     19 H4         -27.5440    -5.6940    13.3700 h1         1 OBJ       0.068700
     20 H5         -30.8500    -8.2740    11.4790 h1         1 OBJ       0.089200
     21 H6         -30.0850    -9.4480    12.5410 h1         1 OBJ       0.089200
     22 H14        -27.9710   -10.3100     8.8110 ha         1 OBJ       0.145000
     23 H15        -30.0310    -6.7500    10.0780 ha         1 OBJ       0.136000
     24 H16        -29.6780    -5.7800     7.8830 ha         1 OBJ       0.134000
     25 H17        -27.3710    -8.2550    11.9080 hn         1 OBJ       0.325500
     26 H7         -26.7180    -8.1240    16.5010 hs         1 OBJ       0.199800
     27 CL1        -28.4050    -6.7440     5.5430 cl         1 OBJ      -0.169000
@<TRIPOS>BOND
     1     1     2 1   
     2     1     6 1   
     3     1    16 1   
     4     1    17 1   
     5     2    12 1   
     6     2    18 1   
     7     2    19 1   
     8     3     4 1   
     9     3    12 1   
    10     3    13 2   
    11     4    14 1   
    12     4    20 1   
    13     4    21 1   
    14     5     8 ar  
    15     5    11 ar  
    16     5    27 1   
    17     6    26 1   
    18     7     8 ar  
    19     7     9 ar  
    20     7    22 1   
    21     8    15 1   
    22     9    10 ar  
    23     9    14 1   
    24    10    11 ar  
    25    10    23 1   
    26    11    24 1   
    27    12    25 1   
@<TRIPOS>SUBSTRUCTURE
     1 OBJ         1 TEMP              0 ****  ****    0 ROOT
