@<TRIPOS>MOLECULE
OBK
   28    27     1     0     0
SMALL
No Charge or Current Charge


@<TRIPOS>ATOM
      1 C4         171.1750   112.9270   148.1800 c3         1 OBK      -0.135400
      2 C8         175.1820   116.0550   149.2070 c3         1 OBK      -0.208400
      3 C9         176.1860   114.9570   149.6100 c          1 OBK       0.714000
      4 C3         169.7110   112.6300   148.5150 c          1 OBK       0.590100
      5 C6         173.1890   114.4500   148.7030 c3         1 OBK      -0.074400
      6 C7         173.7220   115.6440   149.5300 c3         1 OBK      -0.040400
      7 C1         167.7110   110.2810   148.7970 c3         1 OBK      -0.120100
      8 C5         171.7110   114.1200   149.0060 c3         1 OBK      -0.069400
      9 C2         168.2850   111.2160   149.8810 c3         1 OBK       0.165600
     10 O1         169.5970   111.6550   149.4750 os         1 OBK      -0.456100
     11 O2         168.7680   113.2130   147.9960 o          1 OBK      -0.499000
     12 O3         176.5190   114.1380   148.7680 o          1 OBK      -0.743000
     13 O4         176.5930   114.9450   150.7620 o          1 OBK      -0.743000
     14 H1         171.7840   112.0510   148.4320 hc         1 OBK       0.069700
     15 H2         171.2590   113.1620   147.1130 hc         1 OBK       0.069700
     16 H3         175.2180   116.2400   148.1270 hc         1 OBK       0.016700
     17 H4         175.3560   116.9560   149.8090 hc         1 OBK       0.016700
     18 H5         173.7990   113.5620   148.9080 hc         1 OBK       0.046200
     19 H6         173.2960   114.6750   147.6350 hc         1 OBK       0.046200
     20 H7         173.0730   116.5100   149.3520 hc         1 OBK       0.016200
     21 H8         173.6420   115.4090   150.5990 hc         1 OBK       0.016200
     22 H9         166.7500   109.8690   149.1270 hc         1 OBK       0.043033
     23 H10        167.5430   110.8160   147.8550 hc         1 OBK       0.043033
     24 H11        168.3940   109.4440   148.6090 hc         1 OBK       0.043033
     25 H12        171.0940   115.0050   148.8010 hc         1 OBK       0.042700
     26 H13        171.6020   113.8960   150.0750 hc         1 OBK       0.042700
     27 H14        167.6100   112.0660   150.0530 h1         1 OBK       0.052200
     28 H15        168.3570   110.6530   150.8210 h1         1 OBK       0.052200
@<TRIPOS>BOND
     1     1     4 1   
     2     1     8 1   
     3     1    14 1   
     4     1    15 1   
     5     2     3 1   
     6     2     6 1   
     7     2    16 1   
     8     2    17 1   
     9     3    12 1   
    10     3    13 1   
    11     4    10 1   
    12     4    11 2   
    13     5     6 1   
    14     5     8 1   
    15     5    18 1   
    16     5    19 1   
    17     6    20 1   
    18     6    21 1   
    19     7     9 1   
    20     7    22 1   
    21     7    23 1   
    22     7    24 1   
    23     8    25 1   
    24     8    26 1   
    25     9    10 1   
    26     9    27 1   
    27     9    28 1   
@<TRIPOS>SUBSTRUCTURE
     1 OBK         1 TEMP              0 ****  ****    0 ROOT
