@<TRIPOS>MOLECULE
OBK
   28    27     1     0     0
SMALL
abcg2


@<TRIPOS>ATOM
      1 C4         171.3440   112.6430   149.2490 c3         1 OBK      -0.135400
      2 C8         175.1040   115.9830   148.6200 c3         1 OBK      -0.208400
      3 C9         176.2330   115.3260   149.4410 c          1 OBK       0.714000
      4 C3         169.8660   112.4200   149.4390 c          1 OBK       0.590100
      5 C6         173.2440   114.2880   149.0170 c3         1 OBK      -0.074400
      6 C7         173.6870   115.7420   149.1190 c3         1 OBK      -0.040400
      7 C1         167.4610   110.8520   148.1630 c3         1 OBK      -0.120100
      8 C5         171.7690   114.0980   149.3480 c3         1 OBK      -0.069400
      9 C2         168.1890   110.7320   149.4840 c3         1 OBK       0.165600
     10 O1         169.5640   111.1260   149.3780 os         1 OBK      -0.456100
     11 O2         169.0500   113.2900   149.6190 o          1 OBK      -0.499000
     12 O3         177.2870   115.0690   148.8220 o          1 OBK      -0.743000
     13 O4         176.0230   115.1410   150.6570 o          1 OBK      -0.743000
     14 H1         171.8840   112.0320   149.9780 hc         1 OBK       0.069700
     15 H2         171.6160   112.2330   148.2700 hc         1 OBK       0.069700
     16 H3         175.1860   115.6690   147.5750 hc         1 OBK       0.016700
     17 H4         175.2980   117.0630   148.6150 hc         1 OBK       0.016700
     18 H5         173.8570   113.6730   149.6810 hc         1 OBK       0.046200
     19 H6         173.4300   113.9210   148.0000 hc         1 OBK       0.046200
     20 H7         172.9940   116.3610   148.5380 hc         1 OBK       0.016200
     21 H8         173.5970   116.0770   150.1550 hc         1 OBK       0.016200
     22 H9         166.4490   110.4630   148.2730 hc         1 OBK       0.043033
     23 H10        167.3860   111.8870   147.8320 hc         1 OBK       0.043033
     24 H11        167.9580   110.2730   147.3840 hc         1 OBK       0.043033
     25 H12        171.1700   114.7070   148.6650 hc         1 OBK       0.042700
     26 H13        171.5670   114.4770   150.3540 hc         1 OBK       0.042700
     27 H14        167.6880   111.3080   150.2630 h1         1 OBK       0.052200
     28 H15        168.2250   109.6930   149.8080 h1         1 OBK       0.052200
@<TRIPOS>BOND
     1     1     4 1   
     2     1     8 1   
     3     1    14 1   
     4     1    15 1   
     5     2     3 1   
     6     2     6 1   
     7     2    16 1   
     8     2    17 1   
     9     3    12 1   
    10     3    13 1   
    11     4    10 1   
    12     4    11 2   
    13     5     6 1   
    14     5     8 1   
    15     5    18 1   
    16     5    19 1   
    17     6    20 1   
    18     6    21 1   
    19     7     9 1   
    20     7    22 1   
    21     7    23 1   
    22     7    24 1   
    23     8    25 1   
    24     8    26 1   
    25     9    10 1   
    26     9    27 1   
    27     9    28 1   
@<TRIPOS>SUBSTRUCTURE
     1 OBK         1 TEMP              0 ****  ****    0 ROOT
