@<TRIPOS>MOLECULE
OBM
   51    55     1     0     0
SMALL
abcg2


@<TRIPOS>ATOM
      1 C01         17.6500    14.7010     1.3040 ca         1 OBM       0.144100
      2 C02         16.5230    14.4740     2.0890 ca         1 OBM      -0.172500
      3 C03         16.6180    13.6690     3.2170 ca         1 OBM      -0.055500
      4 C04         17.8330    13.0850     3.5980 ca         1 OBM      -0.078800
      5 C05         18.9520    13.3200     2.7820 ca         1 OBM      -0.055500
      6 C06         18.8670    14.1120     1.6530 ca         1 OBM      -0.172500
      7 O01         17.6230    15.4790     0.1850 oh         1 OBM      -0.534100
      8 C07         17.9130    12.2480     4.7880 ce         1 OBM      -0.053400
      9 C08         18.9530    11.9170     5.5810 cf         1 OBM      -0.083400
     10 C09         18.3440    11.0730     6.6930 c5         1 OBM       0.220500
     11 C10         20.3540    12.3420     5.6190 ca         1 OBM      -0.082800
     12 C11         20.7130    13.6940     5.6250 ca         1 OBM      -0.059000
     13 C12         22.0400    14.0830     5.7090 ca         1 OBM      -0.174000
     14 C13         23.0420    13.1150     5.7770 ca         1 OBM       0.137100
     15 C14         22.7060    11.7640     5.7600 ca         1 OBM      -0.174000
     16 C15         21.3730    11.3880     5.7000 ca         1 OBM      -0.059000
     17 O02         24.3340    13.5430     5.8750 oh         1 OBM      -0.535100
     18 C16         16.6940    11.6060     5.4520 c5         1 OBM       0.175500
     19 C17         16.3480    12.4240     6.7240 c5         1 OBM      -0.062400
     20 C18         17.5950    12.1200     7.5920 c5         1 OBM      -0.375700
     21 O03         17.2550    10.4180     6.0430 os         1 OBM      -0.414000
     22 S01         17.1650    11.4800     9.2140 s6         1 OBM       1.346700
     23 O04         18.4110    11.9720    10.1230 os         1 OBM      -0.454800
     24 O05         17.1300    10.0430     9.1970 o          1 OBM      -0.518000
     25 O06         16.0550    12.1970     9.7780 o          1 OBM      -0.518000
     26 C19         19.7310    11.6110     9.8030 ca         1 OBM       0.123100
     27 C20         20.5710    12.6080     9.3340 ca         1 OBM      -0.115000
     28 C21         21.9020    12.3100     9.0750 ca         1 OBM      -0.066000
     29 C22         22.3540    11.0150     9.2860 ca         1 OBM      -0.014900
     30 C23         21.5110    10.0150     9.7500 ca         1 OBM      -0.066000
     31 C24         20.1810    10.3180    10.0190 ca         1 OBM      -0.115000
     32 BR1         24.1880    10.6020     8.9350 br         1 OBM      -0.101100
     33 H1          15.5760    14.9240     1.8170 ha         1 OBM       0.124500
     34 H2          15.7290    13.5090     3.8120 ha         1 OBM       0.119000
     35 H3          19.9000    12.8640     3.0330 ha         1 OBM       0.119000
     36 H4          19.7350    14.2790     1.0270 ha         1 OBM       0.124500
     37 H5          16.7330    15.8310     0.0460 ho         1 OBM       0.465000
     38 H6          18.9920    10.3730     7.2060 h1         1 OBM       0.111700
     39 H7          19.9390    14.4480     5.5760 ha         1 OBM       0.121500
     40 H8          22.3120    15.1300     5.7330 ha         1 OBM       0.128000
     41 H9          23.4850    11.0140     5.8190 ha         1 OBM       0.128000
     42 H10         21.1200    10.3350     5.7080 ha         1 OBM       0.121500
     43 H11         24.9280    12.7840     5.9460 ho         1 OBM       0.467000
     44 H12         15.8520    11.3580     4.8140 h1         1 OBM       0.106700
     45 H13         16.2340    13.4890     6.5390 hc         1 OBM       0.071700
     46 H14         15.4330    12.0440     7.1730 hc         1 OBM       0.071700
     47 H15         18.1930    13.0040     7.7930 h1         1 OBM       0.109700
     48 H16         20.1910    13.6080     9.1780 ha         1 OBM       0.144500
     49 H17         22.5670    13.0760     8.7060 ha         1 OBM       0.141000
     50 H18         21.8810     9.0120     9.9110 ha         1 OBM       0.141000
     51 H19         19.5070     9.5590    10.3910 ha         1 OBM       0.144500
@<TRIPOS>BOND
     1     1     2 ar  
     2     1     6 ar  
     3     1     7 1   
     4     2     3 ar  
     5     2    33 1   
     6     3     4 ar  
     7     3    34 1   
     8     4     5 ar  
     9     4     8 1   
    10     5     6 ar  
    11     5    35 1   
    12     6    36 1   
    13     7    37 1   
    14     8     9 2   
    15     8    18 1   
    16     9    10 1   
    17     9    11 1   
    18    10    20 1   
    19    10    21 1   
    20    10    38 1   
    21    11    12 ar  
    22    11    16 ar  
    23    12    13 ar  
    24    12    39 1   
    25    13    14 ar  
    26    13    40 1   
    27    14    15 ar  
    28    14    17 1   
    29    15    16 ar  
    30    15    41 1   
    31    16    42 1   
    32    17    43 1   
    33    18    19 1   
    34    18    21 1   
    35    18    44 1   
    36    19    20 1   
    37    19    45 1   
    38    19    46 1   
    39    20    22 1   
    40    20    47 1   
    41    22    23 1   
    42    22    24 2   
    43    22    25 2   
    44    23    26 1   
    45    26    27 ar  
    46    26    31 ar  
    47    27    28 ar  
    48    27    48 1   
    49    28    29 ar  
    50    28    49 1   
    51    29    30 ar  
    52    29    32 1   
    53    30    31 ar  
    54    30    50 1   
    55    31    51 1   
@<TRIPOS>SUBSTRUCTURE
     1 OBM         1 TEMP              0 ****  ****    0 ROOT
