@<TRIPOS>MOLECULE
OBM
   51    55     1     0     0
SMALL
No Charge or Current Charge


@<TRIPOS>ATOM
      1 C01         17.6590    14.5280     1.1620 ca         1 OBM       0.144100
      2 C02         16.5900    14.5510     2.0710 ca         1 OBM      -0.172500
      3 C03         16.6830    13.8460     3.2850 ca         1 OBM      -0.055500
      4 C04         17.8500    13.1200     3.5990 ca         1 OBM      -0.078800
      5 C05         18.9140    13.0950     2.6750 ca         1 OBM      -0.055500
      6 C06         18.8190    13.8010     1.4630 ca         1 OBM      -0.172500
      7 O01         17.5760    15.2080    -0.0160 oh         1 OBM      -0.534100
      8 C07         17.9460    12.3670     4.8820 ce         1 OBM      -0.053400
      9 C08         19.0230    12.1270     5.6900 cf         1 OBM      -0.083400
     10 C09         18.4510    11.2670     6.8380 c5         1 OBM       0.220500
     11 C10         20.4150    12.6110     5.6500 ca         1 OBM      -0.082800
     12 C11         20.6960    13.9300     5.2430 ca         1 OBM      -0.059000
     13 C12         22.0230    14.3920     5.1990 ca         1 OBM      -0.174000
     14 C13         23.0770    13.5390     5.5560 ca         1 OBM       0.137100
     15 C14         22.8060    12.2240     5.9610 ca         1 OBM      -0.174000
     16 C15         21.4790    11.7620     6.0150 ca         1 OBM      -0.059000
     17 O02         24.3600    13.9950     5.5050 oh         1 OBM      -0.535100
     18 C16         16.7630    11.6330     5.5330 c5         1 OBM       0.175500
     19 C17         16.3790    12.5220     6.7600 c5         1 OBM      -0.062400
     20 C18         17.6240    12.2640     7.7060 c5         1 OBM      -0.375700
     21 O03         17.4210    10.5410     6.1730 os         1 OBM      -0.414000
     22 S01         17.1000    11.4110     9.2960 s6         1 OBM       1.346700
     23 O04         18.3750    11.7550    10.2880 os         1 OBM      -0.454800
     24 O05         17.0510     9.9550     9.1010 o          1 OBM      -0.518000
     25 O06         15.9250    12.0980     9.8490 o          1 OBM      -0.518000
     26 C19         19.6370    11.3400     9.9520 ca         1 OBM       0.123100
     27 C20         20.5900    12.2990     9.5690 ca         1 OBM      -0.115000
     28 C21         21.9040    11.9040     9.2640 ca         1 OBM      -0.066000
     29 C22         22.2620    10.5470     9.3440 ca         1 OBM      -0.014900
     30 C23         21.3150     9.5870     9.7400 ca         1 OBM      -0.066000
     31 C24         20.0030     9.9850    10.0550 ca         1 OBM      -0.115000
     32 Br1         24.0480    10.0060     8.9290 br         1 OBM      -0.101100
     33 H1          15.6850    15.1100     1.8460 ha         1 OBM       0.124500
     34 H2          15.8490    13.8730     3.9820 ha         1 OBM       0.119000
     35 H3          19.8130    12.5240     2.8930 ha         1 OBM       0.119000
     36 H4          19.6440    13.7780     0.7570 ha         1 OBM       0.124500
     37 H5          16.7030    15.6530    -0.0570 ho         1 OBM       0.465000
     38 H6          19.1690    10.6130     7.3540 h1         1 OBM       0.111700
     39 H7          19.8850    14.6010     4.9690 ha         1 OBM       0.121500
     40 H8          22.2320    15.4120     4.8860 ha         1 OBM       0.128000
     41 H9          23.6170    11.5530     6.2340 ha         1 OBM       0.128000
     42 H10         21.2820    10.7380     6.3240 ha         1 OBM       0.121500
     43 H11         24.9590    13.2680     5.7760 ho         1 OBM       0.467000
     44 H12         15.9470    11.3210     4.8660 h1         1 OBM       0.106700
     45 H13         16.2690    13.5790     6.4890 hc         1 OBM       0.071700
     46 H14         15.4230    12.2000     7.1910 hc         1 OBM       0.071700
     47 H15         18.1650    13.1750     7.9850 h1         1 OBM       0.109700
     48 H16         20.3120    13.3490     9.5120 ha         1 OBM       0.144500
     49 H17         22.6400    12.6460     8.9650 ha         1 OBM       0.141000
     50 H18         21.5990     8.5390     9.8140 ha         1 OBM       0.141000
     51 H19         19.2800     9.2430    10.3840 ha         1 OBM       0.144500
@<TRIPOS>BOND
     1     1     2 ar  
     2     1     6 ar  
     3     1     7 1   
     4     2     3 ar  
     5     2    33 1   
     6     3     4 ar  
     7     3    34 1   
     8     4     5 ar  
     9     4     8 1   
    10     5     6 ar  
    11     5    35 1   
    12     6    36 1   
    13     7    37 1   
    14     8     9 2   
    15     8    18 1   
    16     9    10 1   
    17     9    11 1   
    18    10    20 1   
    19    10    21 1   
    20    10    38 1   
    21    11    12 ar  
    22    11    16 ar  
    23    12    13 ar  
    24    12    39 1   
    25    13    14 ar  
    26    13    40 1   
    27    14    15 ar  
    28    14    17 1   
    29    15    16 ar  
    30    15    41 1   
    31    16    42 1   
    32    17    43 1   
    33    18    19 1   
    34    18    21 1   
    35    18    44 1   
    36    19    20 1   
    37    19    45 1   
    38    19    46 1   
    39    20    22 1   
    40    20    47 1   
    41    22    23 1   
    42    22    24 2   
    43    22    25 2   
    44    23    26 1   
    45    26    27 ar  
    46    26    31 ar  
    47    27    28 ar  
    48    27    48 1   
    49    28    29 ar  
    50    28    49 1   
    51    29    30 ar  
    52    29    32 1   
    53    30    31 ar  
    54    30    50 1   
    55    31    51 1   
@<TRIPOS>SUBSTRUCTURE
     1 OBM         1 TEMP              0 ****  ****    0 ROOT
