@<TRIPOS>MOLECULE
OBN
   85    90     1     0     0
SMALL
abcg2


@<TRIPOS>ATOM
      1 C1           6.5350    12.0720    42.1910 c6         1 OBN       0.190300
      2 C2           5.6060    12.0010    43.3920 c6         1 OBN      -0.066400
      3 C3           5.1350    10.6120    43.7860 c6         1 OBN       0.187300
      4 C4           4.6810     9.8130    42.5700 c6         1 OBN      -0.085400
      5 C5           5.6160     9.8250    41.3520 c6         1 OBN       0.197000
      6 C6           4.9570     9.0730    40.1970 c6         1 OBN      -0.112400
      7 C7           3.7440     9.7810    39.6300 c6         1 OBN      -0.066400
      8 C8           4.0820    11.2040    39.1870 c6         1 OBN      -0.048700
      9 C9           4.7070    12.0300    40.3480 c6         1 OBN      -0.035700
     10 C10          5.9950    11.3060    40.9370 c6         1 OBN      -0.070000
     11 C11          4.9260    13.4740    39.8580 c6         1 OBN       0.176300
     12 C12          3.6650    14.0660    39.2410 c6         1 OBN      -0.109400
     13 C13          3.0860    13.2990    38.0490 c5         1 OBN      -0.062000
     14 C14          2.8550    11.8370    38.5030 c5         1 OBN       0.192000
     15 C15          1.5930    11.9110    39.3830 c5         1 OBN      -0.107400
     16 C16          0.7820    13.1350    38.9040 c5         1 OBN      -0.076400
     17 C17          1.6300    13.8590    37.8270 c5         1 OBN      -0.026500
     18 C18          4.0180    13.4200    36.8450 c3         1 OBN      -0.078100
     19 C19          7.1210    11.2600    39.8860 c3         1 OBN       0.153600
     20 C20          1.0890    13.7150    36.4410 c2         1 OBN      -0.086400
     21 C21          1.3850    14.7250    35.3730 c5         1 OBN       0.164800
     22 C22          0.2610    12.8000    35.9180 ce         1 OBN      -0.313200
     23 C23          0.0060    13.1210    34.5130 c          1 OBN       0.644300
     24 C24          5.7630     8.9990    45.4400 c6         1 OBN       0.376300
     25 C25          7.0060     8.2210    45.8640 c6         1 OBN       0.159300
     26 C26          7.9070     9.1100    46.7120 c6         1 OBN       0.135300
     27 C27          7.1330     9.7440    47.8560 c6         1 OBN       0.106300
     28 C28          5.9030    10.4860    47.3210 c6         1 OBN       0.147300
     29 C29          5.0210    11.0430    48.4180 c3         1 OBN      -0.089100
     30 O1           7.8470    11.6350    42.5880 oh         1 OBN      -0.642000
     31 O3           6.1880     9.9570    44.5190 os         1 OBN      -0.454000
     32 O5           6.7740     9.0630    41.7440 oh         1 OBN      -0.632000
     33 O11          5.2770    14.3330    40.9580 oh         1 OBN      -0.665000
     34 O14          2.6180    10.9900    37.3580 oh         1 OBN      -0.669000
     35 O19          7.8630    12.4940    39.8860 oh         1 OBN      -0.678000
     36 O21          0.6780    14.2690    34.2080 os         1 OBN      -0.426100
     37 O23         -0.6670    12.5460    33.6880 o          1 OBN      -0.474000
     38 O2           6.5780     7.0740    46.5910 oh         1 OBN      -0.724000
     39 O6           8.9760     8.2960    47.1930 oh         1 OBN      -0.678000
     40 O4           8.0430    10.6330    48.5130 oh         1 OBN      -0.732000
     41 O7           5.0980     9.5760    46.5520 os         1 OBN      -0.480000
     42 H1           6.6130    13.1140    41.9140 h1         1 OBN       0.067700
     43 H21          6.0960    12.4730    44.2460 hc         1 OBN       0.059200
     44 H22A         4.7210    12.5990    43.1670 hc         1 OBN       0.059200
     45 H3           4.2850    10.7160    44.4650 h1         1 OBN       0.043700
     46 H41          4.5130     8.7700    42.8460 hc         1 OBN       0.050700
     47 H42          3.7090    10.2120    42.2800 hc         1 OBN       0.050700
     48 H61          5.7000     8.9340    39.4040 hc         1 OBN       0.048200
     49 H62          4.6890     8.0750    40.5550 hc         1 OBN       0.048200
     50 H71          3.3570     9.2210    38.7800 hc         1 OBN       0.054200
     51 H72          2.9460     9.8080    40.3750 hc         1 OBN       0.054200
     52 H8           4.8310    11.1250    38.3950 hc         1 OBN       0.060700
     53 H9           3.9680    12.0890    41.1500 hc         1 OBN       0.060700
     54 H11          5.7430    13.4790    39.1330 h1         1 OBN       0.049700
     55 H121         2.9240    14.1450    40.0390 hc         1 OBN       0.049200
     56 H122         3.8880    15.0890    38.9200 hc         1 OBN       0.049200
     57 H151         1.0320    10.9820    39.2980 hc         1 OBN       0.060700
     58 H152         1.8670    12.0240    40.4310 hc         1 OBN       0.060700
     59 H161        -0.1890    12.8450    38.5070 hc         1 OBN       0.053200
     60 H162         0.5880    13.8150    39.7320 hc         1 OBN       0.053200
     61 H17          1.6640    14.9340    38.0230 hc         1 OBN       0.066700
     62 H181         3.6240    12.9110    35.9670 hc         1 OBN       0.042700
     63 H182         4.1820    14.4700    36.5970 hc         1 OBN       0.042700
     64 H183         4.9900    12.9790    37.0680 hc         1 OBN       0.042700
     65 H191         7.8060    10.4470    40.1240 h1         1 OBN       0.029700
     66 H192         6.7230    11.0790    38.8880 h1         1 OBN       0.029700
     67 H211         1.0130    15.7150    35.6490 h1         1 OBN       0.081200
     68 H212         2.4440    14.8040    35.1300 h1         1 OBN       0.081200
     69 H22         -0.2010    11.9520    36.4010 ha         1 OBN       0.226000
     70 H10          5.0270     8.3150    45.0080 h2         1 OBN       0.081700
     71 H2           7.5450     7.9160    44.9620 h1         1 OBN       0.078700
     72 H13          8.3020     9.9100    46.0780 h1         1 OBN       0.082700
     73 H4           6.8070     8.9630    48.5490 h1         1 OBN       0.055700
     74 H5           6.2500    11.2970    46.6720 h1         1 OBN       0.061700
     75 H6'1         4.1620    11.5570    47.9860 hc         1 OBN       0.044033
     76 H6'2         4.6610    10.2390    49.0640 hc         1 OBN       0.044033
     77 H6'3         5.5750    11.7590    49.0260 hc         1 OBN       0.044033
     78 HO1          8.4420    11.9480    41.8940 ho         1 OBN       0.439000
     79 HO5          7.1680     8.6800    40.9520 ho         1 OBN       0.428000
     80 HOE          5.4280    15.2170    40.6000 ho         1 OBN       0.442000
     81 HOF          1.9050    11.3640    36.8270 ho         1 OBN       0.447000
     82 HON          8.5560    12.4170    39.2200 ho         1 OBN       0.443000
     83 HO2          7.3520     6.7400    47.0650 ho         1 OBN       0.523000
     84 HO3          9.4210     8.7900    47.8960 ho         1 OBN       0.462000
     85 HO4          7.7620    10.7500    49.4280 ho         1 OBN       0.506000
@<TRIPOS>BOND
     1     1     2 1   
     2     1    10 1   
     3     1    30 1   
     4     1    42 1   
     5     2     3 1   
     6     2    43 1   
     7     2    44 1   
     8     3     4 1   
     9     3    31 1   
    10     3    45 1   
    11     4     5 1   
    12     4    46 1   
    13     4    47 1   
    14     5     6 1   
    15     5    10 1   
    16     5    32 1   
    17     6     7 1   
    18     6    48 1   
    19     6    49 1   
    20     7     8 1   
    21     7    50 1   
    22     7    51 1   
    23     8     9 1   
    24     8    14 1   
    25     8    52 1   
    26     9    10 1   
    27     9    11 1   
    28     9    53 1   
    29    10    19 1   
    30    11    12 1   
    31    11    33 1   
    32    11    54 1   
    33    12    13 1   
    34    12    55 1   
    35    12    56 1   
    36    13    14 1   
    37    13    17 1   
    38    13    18 1   
    39    14    15 1   
    40    14    34 1   
    41    15    16 1   
    42    15    57 1   
    43    15    58 1   
    44    16    17 1   
    45    16    59 1   
    46    16    60 1   
    47    17    20 1   
    48    17    61 1   
    49    18    62 1   
    50    18    63 1   
    51    18    64 1   
    52    19    35 1   
    53    19    65 1   
    54    19    66 1   
    55    20    21 1   
    56    20    22 2   
    57    21    36 1   
    58    21    67 1   
    59    21    68 1   
    60    22    23 1   
    61    22    69 1   
    62    23    36 1   
    63    23    37 2   
    64    24    25 1   
    65    24    31 1   
    66    24    41 1   
    67    24    70 1   
    68    25    26 1   
    69    25    38 1   
    70    25    71 1   
    71    26    27 1   
    72    26    39 1   
    73    26    72 1   
    74    27    28 1   
    75    27    40 1   
    76    27    73 1   
    77    28    29 1   
    78    28    41 1   
    79    28    74 1   
    80    29    75 1   
    81    29    76 1   
    82    29    77 1   
    83    30    78 1   
    84    32    79 1   
    85    33    80 1   
    86    34    81 1   
    87    35    82 1   
    88    38    83 1   
    89    39    84 1   
    90    40    85 1   
@<TRIPOS>SUBSTRUCTURE
     1 OBN         1 TEMP              0 ****  ****    0 ROOT
