@<TRIPOS>MOLECULE
OBN
   85    90     1     0     0
SMALL
No Charge or Current Charge


@<TRIPOS>ATOM
      1 C1           6.7880    12.1440    42.2460 c6         1 OBN       0.190300
      2 C2           5.8350    12.2140    43.4740 c6         1 OBN      -0.066400
      3 C3           5.2720    10.8380    43.9120 c6         1 OBN       0.187300
      4 C4           4.6720    10.0740    42.6950 c6         1 OBN      -0.085400
      5 C5           5.6390     9.9590    41.4650 c6         1 OBN       0.197000
      6 C6           4.9300     9.2350    40.2910 c6         1 OBN      -0.112400
      7 C7           3.7440    10.0150    39.7060 c6         1 OBN      -0.066400
      8 C8           4.1160    11.4550    39.2130 c6         1 OBN      -0.048700
      9 C9           4.8690    12.2540    40.3780 c6         1 OBN      -0.035700
     10 C10          6.1330    11.4300    40.9840 c6         1 OBN      -0.070000
     11 C11          5.2270    13.6990    39.8890 c6         1 OBN       0.176300
     12 C12          3.4970    14.5750    38.9700 c6         1 OBN      -0.109400
     13 C13          2.9530    13.5700    37.9310 c5         1 OBN      -0.062000
     14 C14          2.8170    12.1180    38.5450 c5         1 OBN       0.192000
     15 C15          1.6080    12.3260    39.5150 c5         1 OBN      -0.107400
     16 C16          0.6370    13.3190    38.7850 c5         1 OBN      -0.076400
     17 C17          1.4510    13.9380    37.5920 c5         1 OBN      -0.026500
     18 C18          3.9250    13.6350    36.7110 c3         1 OBN      -0.078100
     19 C19          7.2820    11.2620    39.8640 c3         1 OBN       0.153600
     20 C20          0.9680    13.4280    36.2180 c2         1 OBN      -0.086400
     21 C21          1.1140    14.2830    34.9720 c5         1 OBN       0.164800
     22 C22          0.2370    12.3500    35.9220 ce         1 OBN      -0.313200
     23 C23         -0.0930    12.3500    34.4960 c          1 OBN       0.644300
     24 C24          5.8300     8.9510    45.3850 c6         1 OBN       0.376300
     25 C25          7.0450     8.0550    45.8130 c6         1 OBN       0.159300
     26 C26          7.9340     8.8430    46.8210 c6         1 OBN       0.135300
     27 C27          7.0900     9.3790    48.0180 c6         1 OBN       0.106300
     28 C28          5.8850    10.2120    47.4740 c6         1 OBN       0.147300
     29 C29          4.9090    10.6740    48.5870 c3         1 OBN      -0.089100
     30 O1           8.0480    11.5650    42.6180 oh         1 OBN      -0.642000
     31 O3           6.2840    10.0910    44.6250 os         1 OBN      -0.454000
     32 O5           6.7000     9.0370    41.8530 oh         1 OBN      -0.632000
     33 O11          5.5560    14.5860    40.9570 oh         1 OBN      -0.665000
     34 O14          2.4190    11.2290    37.5040 oh         1 OBN      -0.669000
     35 O19          8.1470    12.4080    39.6190 oh         1 OBN      -0.678000
     36 O21          0.4530    13.4820    33.9400 os         1 OBN      -0.426100
     37 O23         -0.7380    11.5060    33.8970 o          1 OBN      -0.474000
     38 O2           6.6400     6.8070    46.4290 oh         1 OBN      -0.724000
     39 O6           8.9980     8.0050    47.3180 oh         1 OBN      -0.678000
     40 O4           7.9330    10.1490    48.9040 oh         1 OBN      -0.732000
     41 O7           5.1020     9.4180    46.5500 os         1 OBN      -0.480000
     42 H1           7.0310    13.1740    41.9780 h1         1 OBN       0.067700
     43 H21          6.3560    12.6810    44.3200 hc         1 OBN       0.059200
     44 H22A         4.9980    12.8850    43.2470 hc         1 OBN       0.059200
     45 H3           4.4550    11.0380    44.6220 h1         1 OBN       0.043700
     46 H41          4.3370     9.0740    42.9960 hc         1 OBN       0.050700
     47 H42          3.7480    10.5920    42.4180 hc         1 OBN       0.050700
     48 H61          5.6450     9.0220    39.4830 hc         1 OBN       0.048200
     49 H62          4.5700     8.2520    40.6260 hc         1 OBN       0.048200
     50 H71          3.3500     9.4110    38.8780 hc         1 OBN       0.054200
     51 H72          2.9290    10.0570    40.4390 hc         1 OBN       0.054200
     52 H8           4.8310    11.3410    38.3900 hc         1 OBN       0.060700
     53 H9           4.1330    12.3930    41.1770 hc         1 OBN       0.060700
     54 H11          6.0300    13.6610    39.1400 h1         1 OBN       0.049700
     55 H121         2.7600    14.8050    39.7500 hc         1 OBN       0.049200
     56 H122         3.7550    15.5350    38.5030 hc         1 OBN       0.049200
     57 H151         1.1010    11.3840    39.7510 hc         1 OBN       0.060700
     58 H152         1.9280    12.7400    40.4780 hc         1 OBN       0.060700
     59 H161        -0.2900    12.8290    38.4690 hc         1 OBN       0.053200
     60 H162         0.3180    14.1050    39.4790 hc         1 OBN       0.053200
     61 H17          1.3210    15.0280    37.5970 hc         1 OBN       0.066700
     62 H181         3.6450    12.9360    35.9140 hc         1 OBN       0.042700
     63 H182         3.9460    14.6390    36.2720 hc         1 OBN       0.042700
     64 H183         4.9520    13.3870    37.0010 hc         1 OBN       0.042700
     65 H191         7.9260    10.4250    40.1610 h1         1 OBN       0.029700
     66 H192         6.8270    10.9460    38.9190 h1         1 OBN       0.029700
     67 H211         0.6010    15.2500    35.0700 h1         1 OBN       0.081200
     68 H212         2.1580    14.4610    34.6850 h1         1 OBN       0.081200
     69 H22         -0.1320    11.5670    36.5810 ha         1 OBN       0.226000
     70 H10          5.1660     8.3300    44.7670 h2         1 OBN       0.081700
     71 H2           7.6430     7.8520    44.9120 h1         1 OBN       0.078700
     72 H13          8.3570     9.7100    46.2900 h1         1 OBN       0.082700
     73 H4           6.6780     8.5150    48.5620 h1         1 OBN       0.055700
     74 H5           6.2590    11.1060    46.9530 h1         1 OBN       0.061700
     75 H6'1         4.0480    11.2000    48.1570 hc         1 OBN       0.044033
     76 H6'2         4.5290     9.8220    49.1630 hc         1 OBN       0.044033
     77 H6'3         5.3970    11.3640    49.2850 hc         1 OBN       0.044033
     78 HO1          8.6080    11.6400    41.8160 ho         1 OBN       0.439000
     79 HO5          7.0740     8.6680    41.0280 ho         1 OBN       0.428000
     80 HOE          5.7450    15.4580    40.5480 ho         1 OBN       0.442000
     81 HOF          1.8720    11.7770    36.9020 ho         1 OBN       0.447000
     82 HON          8.7160    12.1840    38.8480 ho         1 OBN       0.443000
     83 HO2          7.4260     6.5480    46.9680 ho         1 OBN       0.523000
     84 HO3          9.3540     8.4930    48.0970 ho         1 OBN       0.462000
     85 HO4          7.4150    10.3250    49.7240 ho         1 OBN       0.506000
@<TRIPOS>BOND
     1     1     2 1   
     2     1    10 1   
     3     1    30 1   
     4     1    42 1   
     5     2     3 1   
     6     2    43 1   
     7     2    44 1   
     8     3     4 1   
     9     3    31 1   
    10     3    45 1   
    11     4     5 1   
    12     4    46 1   
    13     4    47 1   
    14     5     6 1   
    15     5    10 1   
    16     5    32 1   
    17     6     7 1   
    18     6    48 1   
    19     6    49 1   
    20     7     8 1   
    21     7    50 1   
    22     7    51 1   
    23     8     9 1   
    24     8    14 1   
    25     8    52 1   
    26     9    10 1   
    27     9    11 1   
    28     9    53 1   
    29    10    19 1   
    30    11    12 1   
    31    11    33 1   
    32    11    54 1   
    33    12    13 1   
    34    12    55 1   
    35    12    56 1   
    36    13    14 1   
    37    13    17 1   
    38    13    18 1   
    39    14    15 1   
    40    14    34 1   
    41    15    16 1   
    42    15    57 1   
    43    15    58 1   
    44    16    17 1   
    45    16    59 1   
    46    16    60 1   
    47    17    20 1   
    48    17    61 1   
    49    18    62 1   
    50    18    63 1   
    51    18    64 1   
    52    19    35 1   
    53    19    65 1   
    54    19    66 1   
    55    20    21 1   
    56    20    22 2   
    57    21    36 1   
    58    21    67 1   
    59    21    68 1   
    60    22    23 1   
    61    22    69 1   
    62    23    36 1   
    63    23    37 2   
    64    24    25 1   
    65    24    31 1   
    66    24    41 1   
    67    24    70 1   
    68    25    26 1   
    69    25    38 1   
    70    25    71 1   
    71    26    27 1   
    72    26    39 1   
    73    26    72 1   
    74    27    28 1   
    75    27    40 1   
    76    27    73 1   
    77    28    29 1   
    78    28    41 1   
    79    28    74 1   
    80    29    75 1   
    81    29    76 1   
    82    29    77 1   
    83    30    78 1   
    84    32    79 1   
    85    33    80 1   
    86    34    81 1   
    87    35    82 1   
    88    38    83 1   
    89    39    84 1   
    90    40    85 1   
@<TRIPOS>SUBSTRUCTURE
     1 OBN         1 TEMP              0 ****  ****    0 ROOT
