@<TRIPOS>MOLECULE
OBO
   31    33     1     0     0
SMALL
No Charge or Current Charge


@<TRIPOS>ATOM
      1 N1           7.1300     2.2980    17.7400 nb         1 OBO      -0.679000
      2 N3           5.7950    -0.7380    20.2040 na         1 OBO      -0.310600
      3 C4          11.0710    -0.1230    22.6300 ca         1 OBO      -0.065300
      4 C5           9.8820     0.8020    22.8690 c3         1 OBO      -0.113100
      5 C6           9.3960     1.4120    21.5480 c          1 OBO       0.600100
      6 C7           7.5210     1.0630    19.8270 ca         1 OBO      -0.110000
      7 C8           7.8500     2.0700    18.8760 ca         1 OBO       0.365900
      8 C10          5.6520     0.4980    18.4030 ca         1 OBO       0.010400
      9 C13         10.8650    -1.4940    22.3750 ca         1 OBO      -0.094000
     10 O            9.9840     2.3450    21.0150 o          1 OBO      -0.556100
     11 C3          12.3850     0.3860    22.6550 ca         1 OBO      -0.085000
     12 C2          13.4810    -0.4660    22.4280 ca         1 OBO      -0.099000
     13 C1          13.2690    -1.8320    22.1750 ca         1 OBO      -0.096000
     14 C           11.9620    -2.3430    22.1490 ca         1 OBO       0.122000
     15 Cl          11.6950    -4.0520    21.8300 cl         1 OBO      -0.203000
     16 N            8.2620     0.8090    21.0190 ns         1 OBO      -0.178000
     17 C12          6.3870     0.2900    19.5320 ca         1 OBO      -0.058200
     18 C11          4.6920    -1.1390    19.4520 cc         1 OBO       0.415700
     19 N2           4.5750    -0.3940    18.3320 nd         1 OBO      -0.550100
     20 C9           6.0390     1.5170    17.5050 ca         1 OBO       0.413900
     21 H1           6.0820    -1.1480    21.0820 hn         1 OBO       0.361000
     22 H2          10.1800     1.6150    23.5420 hc         1 OBO       0.063700
     23 H3           9.0710     0.2300    23.3340 hc         1 OBO       0.063700
     24 H4           8.7090     2.7230    19.0070 h4         1 OBO       0.028100
     25 H5           9.8590    -1.9040    22.3500 ha         1 OBO       0.126000
     26 H6          12.5580     1.4420    22.8460 ha         1 OBO       0.117000
     27 H7          14.4930    -0.0660    22.4480 ha         1 OBO       0.120000
     28 H8          14.1150    -2.4930    22.0000 ha         1 OBO       0.131000
     29 H9           7.8980     0.0490    21.5800 hn         1 OBO       0.155000
     30 H10          4.0380    -1.9460    19.7610 h5         1 OBO       0.066800
     31 H12          5.4750     1.7110    16.5940 h4         1 OBO       0.038100
@<TRIPOS>BOND
     1     1     7 ar  
     2     1    20 ar  
     3     2    17 1   
     4     2    18 1   
     5     2    21 1   
     6     3     4 1   
     7     3     9 ar  
     8     3    11 ar  
     9     4     5 1   
    10     4    22 1   
    11     4    23 1   
    12     5    10 2   
    13     5    16 1   
    14     6     7 ar  
    15     6    16 1   
    16     6    17 ar  
    17     7    24 1   
    18     8    17 ar  
    19     8    19 1   
    20     8    20 ar  
    21     9    14 ar  
    22     9    25 1   
    23    11    12 ar  
    24    11    26 1   
    25    12    13 ar  
    26    12    27 1   
    27    13    14 ar  
    28    13    28 1   
    29    14    15 1   
    30    16    29 1   
    31    18    19 2   
    32    18    30 1   
    33    20    31 1   
@<TRIPOS>SUBSTRUCTURE
     1 OBO         1 TEMP              0 ****  ****    0 ROOT
