@<TRIPOS>MOLECULE
OBO
   31    33     1     0     0
SMALL
abcg2


@<TRIPOS>ATOM
      1 N1           7.0170     0.7140    17.1620 nb         1 OBO      -0.679000
      2 N3           5.4530     0.9240    20.9120 na         1 OBO      -0.310600
      3 C4          11.1570    -0.8130    22.3460 ca         1 OBO      -0.065300
      4 C5           9.6960    -1.0740    22.1250 c3         1 OBO      -0.113100
      5 C6           9.1110    -0.1880    21.0380 c          1 OBO       0.600100
      6 C7           7.2980    -0.0020    19.4460 ca         1 OBO      -0.110000
      7 C8           7.6750     0.0450    18.1160 ca         1 OBO       0.365900
      8 C10          5.4410     1.4130    18.7770 ca         1 OBO       0.010400
      9 C13         12.1060    -1.5290    21.6240 ca         1 OBO      -0.094000
     10 O            9.5500     0.9130    20.7730 o          1 OBO      -0.556100
     11 C3          11.5810     0.1490    23.2560 ca         1 OBO      -0.085000
     12 C2          12.9340     0.3910    23.4450 ca         1 OBO      -0.099000
     13 C1          13.8860    -0.3200    22.7280 ca         1 OBO      -0.096000
     14 C           13.4540    -1.2760    21.8220 ca         1 OBO       0.122000
     15 CL          14.6270    -2.1810    20.9190 cl         1 OBO      -0.203000
     16 N            8.0330    -0.7200    20.4110 ns         1 OBO      -0.178000
     17 C12          6.1470     0.7100    19.7650 ca         1 OBO      -0.058200
     18 C11          4.3950     1.7180    20.5910 cc         1 OBO       0.415700
     19 N2           4.3460     2.0340    19.3310 nd         1 OBO      -0.550100
     20 C9           5.9230     1.3860    17.4730 ca         1 OBO       0.413900
     21 H1           5.6740     0.5720    21.8310 hn         1 OBO       0.361000
     22 H2           9.1340    -0.8640    23.0390 hc         1 OBO       0.063700
     23 H3           9.5230    -2.1260    21.8930 hc         1 OBO       0.063700
     24 H4           8.5650    -0.4920    17.8060 h4         1 OBO       0.028100
     25 H5          11.7930    -2.2850    20.9140 ha         1 OBO       0.126000
     26 H6          10.8510     0.7070    23.8290 ha         1 OBO       0.117000
     27 H7          13.2560     1.1380    24.1580 ha         1 OBO       0.120000
     28 H8          14.9410    -0.1370    22.8760 ha         1 OBO       0.131000
     29 H9           7.7030    -1.6340    20.6840 hn         1 OBO       0.155000
     30 H10          3.6860     2.0310    21.3420 h5         1 OBO       0.066800
     31 H12          5.4130     1.9160    16.6750 h4         1 OBO       0.038100
@<TRIPOS>BOND
     1     1     7 ar  
     2     1    20 ar  
     3     2    17 1   
     4     2    18 1   
     5     2    21 1   
     6     3     4 1   
     7     3     9 ar  
     8     3    11 ar  
     9     4     5 1   
    10     4    22 1   
    11     4    23 1   
    12     5    10 2   
    13     5    16 1   
    14     6     7 ar  
    15     6    16 1   
    16     6    17 ar  
    17     7    24 1   
    18     8    17 ar  
    19     8    19 1   
    20     8    20 ar  
    21     9    14 ar  
    22     9    25 1   
    23    11    12 ar  
    24    11    26 1   
    25    12    13 ar  
    26    12    27 1   
    27    13    14 ar  
    28    13    28 1   
    29    14    15 1   
    30    16    29 1   
    31    18    19 2   
    32    18    30 1   
    33    20    31 1   
@<TRIPOS>SUBSTRUCTURE
     1 OBO         1 TEMP              0 ****  ****    0 ROOT
