@<TRIPOS>MOLECULE
OBP
   26    27     1     0     0
SMALL
No Charge or Current Charge


@<TRIPOS>ATOM
      1 CX1          0.6690     2.2370     0.6030 ca         1 OBP      -0.119000
      2 CX2          0.3210     0.9780     0.0590 cp         1 OBP       0.015000
      3 CX3          1.3720     0.1500    -0.4130 ca         1 OBP      -0.069500
      4 CX4          2.7160     0.5590    -0.3500 ca         1 OBP      -0.033000
      5 CX5          3.0340     1.8150     0.1930 ca         1 OBP      -0.120000
      6 CX6          2.0110     2.6530     0.6700 ca         1 OBP      -0.078000
      7 CX7         -1.1120     0.5630    -0.0020 cp         1 OBP      -0.164000
      8 CX8         -1.7740     0.4810    -1.2510 ca         1 OBP      -0.064000
      9 CX9         -3.1230     0.0960    -1.3270 ca         1 OBP      -0.156000
     10 CXA         -3.8350    -0.2090    -0.1560 ca         1 OBP      -0.067000
     11 CXB         -3.1940    -0.1260     1.0910 ca         1 OBP      -0.155000
     12 CXC         -1.8460     0.2580     1.1710 ca         1 OBP       0.172100
     13 OH          -1.2550     0.3160     2.3980 oh         1 OBP      -0.530100
     14 SX1          0.9050    -1.4940    -1.0900 sx         1 OBP       0.570300
     15 OX1          1.6730    -1.6560    -2.3890 o          1 OBP      -0.533000
     16 OX2          1.7130    -2.3140     0.1580 oh         1 OBP      -0.617800
     17 HX1         -0.1130     2.8990     0.9670 ha         1 OBP       0.122000
     18 HX4          3.5040    -0.0970    -0.7150 ha         1 OBP       0.148000
     19 HX5          4.0720     2.1380     0.2450 ha         1 OBP       0.119000
     20 HX6          2.2580     3.6260     1.0890 ha         1 OBP       0.117000
     21 HX8         -1.2350     0.7220    -2.1650 ha         1 OBP       0.116000
     22 HX9         -3.6170     0.0370    -2.2950 ha         1 OBP       0.119000
     23 HX10        -4.8800    -0.5070    -0.2140 ha         1 OBP       0.117000
     24 HX11        -3.7440    -0.3620     1.9990 ha         1 OBP       0.132000
     25 HOH         -0.3240     0.5940     2.2670 ho         1 OBP       0.483000
     26 HX2          1.0220    -2.9070     0.5170 ho         1 OBP       0.479000
@<TRIPOS>BOND
     1     1     2 ar  
     2     1     6 ar  
     3     1    17 1   
     4     2     3 ar  
     5     2     7 1   
     6     3     4 ar  
     7     3    14 1   
     8     4     5 ar  
     9     4    18 1   
    10     5     6 ar  
    11     5    19 1   
    12     6    20 1   
    13     7     8 ar  
    14     7    12 ar  
    15     8     9 ar  
    16     8    21 1   
    17     9    10 ar  
    18     9    22 1   
    19    10    11 ar  
    20    10    23 1   
    21    11    12 ar  
    22    11    24 1   
    23    12    13 1   
    24    13    25 1   
    25    14    15 2   
    26    14    16 1   
    27    16    26 1   
@<TRIPOS>SUBSTRUCTURE
     1 OBP         1 TEMP              0 ****  ****    0 ROOT
