@<TRIPOS>MOLECULE
OBP
   26    27     1     0     0
SMALL
bcc


@<TRIPOS>ATOM
      1 CX1          0.6810     2.2560     0.5510 ca         1 OBP      -0.137000
      2 CX2          0.3600     1.0070     0.0260 cp         1 OBP       0.015000
      3 CX3          1.4010     0.2130    -0.4550 ca         1 OBP      -0.069500
      4 CX4          2.7150     0.6480    -0.4560 ca         1 OBP      -0.051000
      5 CX5          3.0120     1.8990     0.0670 ca         1 OBP      -0.138000
      6 CX6          1.9980     2.6980     0.5730 ca         1 OBP      -0.096000
      7 CX7         -1.0510     0.5510    -0.0240 cp         1 OBP      -0.164000
      8 CX8         -1.7700     0.5980    -1.2160 ca         1 OBP      -0.082000
      9 CX9         -3.0970     0.2030    -1.2690 ca         1 OBP      -0.174000
     10 CXA         -3.7170    -0.2470    -0.1090 ca         1 OBP      -0.085000
     11 CXB         -3.0180    -0.3090     1.0850 ca         1 OBP      -0.173000
     12 CXC         -1.6830     0.0850     1.1330 ca         1 OBP       0.172100
     13 OH          -1.0500    -0.0040     2.3180 oh         1 OBP      -0.491100
     14 SX1          1.0160    -1.4100    -1.1140 sx         1 OBP       0.543500
     15 OX1          2.3040    -1.9600    -1.5990 o          1 OBP      -0.506200
     16 OX2          0.7060    -2.0510     0.3710 oh         1 OBP      -0.578800
     17 HX1         -0.1100     2.8910     0.9310 ha         1 OBP       0.140000
     18 HX4          3.5000     0.0190    -0.8540 ha         1 OBP       0.166000
     19 HX5          4.0370     2.2460     0.0780 ha         1 OBP       0.137000
     20 HX6          2.2290     3.6730     0.9800 ha         1 OBP       0.135000
     21 HX8         -1.2770     0.9590    -2.1100 ha         1 OBP       0.134000
     22 HX9         -3.6420     0.2480    -2.2020 ha         1 OBP       0.137000
     23 HX10        -4.7540    -0.5560    -0.1330 ha         1 OBP       0.135000
     24 HX11        -3.4990    -0.6660     1.9870 ha         1 OBP       0.150000
     25 HOH         -0.1130     0.2070     2.2240 ho         1 OBP       0.444000
     26 HX2          0.0420    -2.7500     0.2750 ho         1 OBP       0.440000
@<TRIPOS>BOND
     1     1     2 ar  
     2     1     6 ar  
     3     1    17 1   
     4     2     3 ar  
     5     2     7 1   
     6     3     4 ar  
     7     3    14 1   
     8     4     5 ar  
     9     4    18 1   
    10     5     6 ar  
    11     5    19 1   
    12     6    20 1   
    13     7     8 ar  
    14     7    12 ar  
    15     8     9 ar  
    16     8    21 1   
    17     9    10 ar  
    18     9    22 1   
    19    10    11 ar  
    20    10    23 1   
    21    11    12 ar  
    22    11    24 1   
    23    12    13 1   
    24    13    25 1   
    25    14    15 2   
    26    14    16 1   
    27    16    26 1   
@<TRIPOS>SUBSTRUCTURE
     1 OBP         1 TEMP              0 ****  ****    0 ROOT
