@<TRIPOS>MOLECULE
OBW
   32    35     1     0     0
SMALL
No Charge or Current Charge


@<TRIPOS>ATOM
      1 N1          -3.4400     1.8960     0.0590 nb         1 OBW      -0.205000
      2 C2          -2.7260     0.7470     0.0270 ca         1 OBW       0.240300
      3 C4          -0.7020     2.0310     0.0500 ca         1 OBW       0.133800
      4 C5           0.7350     1.9440     0.0420 cc         1 OBW      -0.284800
      5 C6           1.1490     0.6190     0.0070 cd         1 OBW      -0.012400
      6 O1          -6.6690    -2.0320    -1.1040 o          1 OBW      -0.708500
      7 C           -6.3110    -1.6020    -0.0160 c          1 OBW       0.734000
      8 O           -6.6590    -2.0860     1.0520 o          1 OBW      -0.708500
      9 C1          -5.3850    -0.3730     0.0110 c3         1 OBW      -0.089400
     10 S           -3.5810    -0.8280    -0.0090 ss         1 OBW      -0.254300
     11 C15         -2.7370     3.0550     0.0850 ca         1 OBW       0.131900
     12 N           -1.3900     3.1860     0.0820 nb         1 OBW      -0.193000
     13 S2          -0.1930    -0.5700    -0.0170 ss         1 OBW       0.156400
     14 C3          -1.3240     0.7990     0.0220 ca         1 OBW      -0.290000
     15 C7           2.5490     0.2750    -0.0080 cd         1 OBW       0.039600
     16 S1           3.8880     1.4630     0.0160 ss         1 OBW       0.063400
     17 C14          5.0280     0.0990    -0.0240 ca         1 OBW      -0.166000
     18 C9           4.4070    -1.1370    -0.0520 ca         1 OBW      -0.064800
     19 C8           2.9650    -1.0480    -0.0430 cc         1 OBW      -0.178200
     20 C13          6.4270     0.2100    -0.0270 ca         1 OBW      -0.082000
     21 C12          7.1990    -0.9680    -0.0600 ca         1 OBW      -0.109000
     22 C11          6.5680    -2.2310    -0.0890 ca         1 OBW      -0.119000
     23 C10          5.1610    -2.3210    -0.0850 ca         1 OBW      -0.071000
     24 H1           1.4000     2.8010     0.0600 ha         1 OBW       0.210000
     25 H3          -5.6120     0.2500    -0.8630 h1         1 OBW       0.061700
     26 H4          -5.6040     0.2050     0.9170 h1         1 OBW       0.061700
     27 H5          -3.3160     3.9760     0.1100 h5         1 OBW       0.036100
     28 H6           2.2970    -1.9030    -0.0610 ha         1 OBW       0.214000
     29 H7           6.9080     1.1860    -0.0050 ha         1 OBW       0.117000
     30 H8           8.2850    -0.9040    -0.0630 ha         1 OBW       0.106000
     31 H9           7.1680    -3.1370    -0.1140 ha         1 OBW       0.109000
     32 H10          4.6700    -3.2910    -0.1070 ha         1 OBW       0.118000
@<TRIPOS>BOND
     1     1     2 ar  
     2     1    11 ar  
     3     2    10 1   
     4     2    14 ar  
     5     3     4 1   
     6     3    12 ar  
     7     3    14 ar  
     8     4     5 2   
     9     4    24 1   
    10     5    13 1   
    11     5    15 1   
    12     6     7 1   
    13     7     8 1   
    14     7     9 1   
    15     9    10 1   
    16     9    25 1   
    17     9    26 1   
    18    11    12 ar  
    19    11    27 1   
    20    13    14 1   
    21    15    16 1   
    22    15    19 2   
    23    16    17 1   
    24    17    18 ar  
    25    17    20 ar  
    26    18    19 1   
    27    18    23 ar  
    28    19    28 1   
    29    20    21 ar  
    30    20    29 1   
    31    21    22 ar  
    32    21    30 1   
    33    22    23 ar  
    34    22    31 1   
    35    23    32 1   
@<TRIPOS>SUBSTRUCTURE
     1 OBW         1 TEMP              0 ****  ****    0 ROOT
