@<TRIPOS>MOLECULE
OBW
   32    35     1     0     0
SMALL
abcg2


@<TRIPOS>ATOM
      1 N1          -3.4250     1.9060     0.0420 nb         1 OBW      -0.205000
      2 C2          -2.7400     0.7750     0.0360 ca         1 OBW       0.240300
      3 C4          -0.7270     2.0830     0.0420 ca         1 OBW       0.133800
      4 C5           0.6950     1.9820     0.0360 cc         1 OBW      -0.284800
      5 C6           1.1220     0.6890     0.0230 cd         1 OBW      -0.012400
      6 O1          -7.3210    -1.4870    -0.1890 o          1 OBW      -0.708500
      7 C           -6.0940    -1.6370    -0.0870 c          1 OBW       0.734000
      8 O           -5.4490    -2.6990    -0.0120 o          1 OBW      -0.708500
      9 C1          -5.2740    -0.3330    -0.0430 c3         1 OBW      -0.089400
     10 S           -3.5220    -0.7790     0.0290 ss         1 OBW      -0.254300
     11 C15         -2.7450     3.0560     0.0500 ca         1 OBW       0.131900
     12 N           -1.4410     3.2180     0.0510 nb         1 OBW      -0.193000
     13 S2          -0.1950    -0.4560     0.0170 ss         1 OBW       0.156400
     14 C3          -1.3420     0.8280     0.0360 ca         1 OBW      -0.290000
     15 C7           2.4820     0.2060     0.0070 cd         1 OBW       0.039600
     16 S1           3.8010     1.3400    -0.1270 ss         1 OBW       0.063400
     17 C14          4.9620     0.0560    -0.0820 ca         1 OBW      -0.166000
     18 C9           4.3370    -1.1980     0.0330 ca         1 OBW      -0.064800
     19 C8           2.9140    -1.0810     0.0820 cc         1 OBW      -0.178200
     20 C13          6.3470     0.1810    -0.1500 ca         1 OBW      -0.082000
     21 C12          7.1060    -0.9720    -0.1020 ca         1 OBW      -0.109000
     22 C11          6.5010    -2.2310     0.0130 ca         1 OBW      -0.119000
     23 C10          5.1290    -2.3520     0.0810 ca         1 OBW      -0.071000
     24 H1           1.3490     2.8420     0.0430 ha         1 OBW       0.210000
     25 H3          -5.4630     0.2800    -0.9260 h1         1 OBW       0.061700
     26 H4          -5.5420     0.2620     0.8310 h1         1 OBW       0.061700
     27 H5          -3.3490     3.9570     0.0560 h5         1 OBW       0.036100
     28 H6           2.2550    -1.9350     0.1730 ha         1 OBW       0.214000
     29 H7           6.8170     1.1520    -0.2400 ha         1 OBW       0.117000
     30 H8           8.1840    -0.9010    -0.1530 ha         1 OBW       0.106000
     31 H9           7.1210    -3.1170     0.0500 ha         1 OBW       0.109000
     32 H10          4.6630    -3.3250     0.1720 ha         1 OBW       0.118000
@<TRIPOS>BOND
     1     1     2 ar  
     2     1    11 ar  
     3     2    10 1   
     4     2    14 ar  
     5     3     4 1   
     6     3    12 ar  
     7     3    14 ar  
     8     4     5 2   
     9     4    24 1   
    10     5    13 1   
    11     5    15 1   
    12     6     7 1   
    13     7     8 1   
    14     7     9 1   
    15     9    10 1   
    16     9    25 1   
    17     9    26 1   
    18    11    12 ar  
    19    11    27 1   
    20    13    14 1   
    21    15    16 1   
    22    15    19 2   
    23    16    17 1   
    24    17    18 ar  
    25    17    20 ar  
    26    18    19 1   
    27    18    23 ar  
    28    19    28 1   
    29    20    21 ar  
    30    20    29 1   
    31    21    22 ar  
    32    21    30 1   
    33    22    23 ar  
    34    22    31 1   
    35    23    32 1   
@<TRIPOS>SUBSTRUCTURE
     1 OBW         1 TEMP              0 ****  ****    0 ROOT
