@<TRIPOS>MOLECULE
OBY
   40    43     1     0     0
SMALL
abcg2


@<TRIPOS>ATOM
      1 N1          92.0880    80.4790     0.5340 ns         1 OBY      -0.476900
      2 C1          92.1100    80.3000    -0.8060 c          1 OBY       0.639700
      3 O1          92.9630    79.6070    -1.3690 o          1 OBY      -0.603100
      4 C2          91.0560    80.9840    -1.5780 cc         1 OBY      -0.296600
      5 S1          90.9400    80.6420    -3.2700 ss         1 OBY       0.313000
      6 C3          89.6150    81.7410    -3.4710 cc         1 OBY      -0.147000
      7 C4          89.2890    82.3280    -2.2670 cd         1 OBY      -0.144000
      8 C5          90.1080    81.9030    -1.1980 cd         1 OBY      -0.101000
      9 C6          89.0250    81.9570    -4.7930 ca         1 OBY       0.003000
     10 C7          89.8350    81.9850    -5.9290 ca         1 OBY      -0.096000
     11 C8          89.3140    82.2060    -7.2050 ca         1 OBY      -0.111000
     12 C9          87.9540    82.4110    -7.3850 ca         1 OBY      -0.063000
     13 C10         87.1310    82.3780    -6.2650 ca         1 OBY      -0.197000
     14 C11         87.6310    82.1470    -4.9610 ca         1 OBY      -0.017800
     15 S2          85.3950    82.5770    -6.2750 ss         1 OBY       0.144400
     16 C12         85.3470    82.3310    -4.5440 cc         1 OBY       0.098200
     17 C13         86.5770    82.1170    -3.9940 cd         1 OBY      -0.256200
     18 N2          84.1620    82.3570    -3.8270 ns         1 OBY      -0.394100
     19 C14         82.9160    82.5680    -4.3400 c          1 OBY       0.596100
     20 C15         93.0500    79.8730     1.4050 cx         1 OBY       0.050700
     21 C16         93.3720    80.5880     2.6800 cx         1 OBY      -0.135400
     22 O2          82.7380    82.7610    -5.5390 o          1 OBY      -0.576100
     23 C17         81.7850    82.5390    -3.3480 c3         1 OBY      -0.170100
     24 C18         94.3960    80.5210     1.5760 cx         1 OBY      -0.135400
     25 H1          91.3130    80.9670     0.9530 hn         1 OBY       0.318500
     26 H4          88.5130    83.0710    -2.1630 ha         1 OBY       0.138000
     27 H6          90.0060    82.2840    -0.1910 ha         1 OBY       0.126000
     28 H8          90.9040    81.8570    -5.8140 ha         1 OBY       0.118000
     29 H9          89.9800    82.2290    -8.0570 ha         1 OBY       0.118000
     30 H10         87.5430    82.5890    -8.3710 ha         1 OBY       0.123000
     31 H11         86.7100    81.9340    -2.9400 ha         1 OBY       0.203000
     32 H12         84.2470    82.2060    -2.8320 hn         1 OBY       0.324500
     33 H13         93.0170    78.7900     1.4290 h1         1 OBY       0.091700
     34 H14         92.8820    81.5390     2.8490 hc         1 OBY       0.077950
     35 H15         93.5240    79.9890     3.5660 hc         1 OBY       0.077950
     36 H16         81.1820    83.4380    -3.4800 hc         1 OBY       0.068033
     37 H17         81.1530    81.6770    -3.5690 hc         1 OBY       0.068033
     38 H18         82.1240    82.4770    -2.3160 hc         1 OBY       0.068033
     39 H19         95.2520    79.8730     1.7020 hc         1 OBY       0.077950
     40 H20         94.5780    81.4230     1.0080 hc         1 OBY       0.077950
@<TRIPOS>BOND
     1     1     2 1   
     2     1    20 1   
     3     1    25 1   
     4     2     3 2   
     5     2     4 1   
     6     4     5 1   
     7     4     8 2   
     8     5     6 1   
     9     6     7 2   
    10     6     9 1   
    11     7     8 1   
    12     7    26 1   
    13     8    27 1   
    14     9    10 ar  
    15     9    14 ar  
    16    10    11 ar  
    17    10    28 1   
    18    11    12 ar  
    19    11    29 1   
    20    12    13 ar  
    21    12    30 1   
    22    13    14 ar  
    23    13    15 1   
    24    14    17 1   
    25    15    16 1   
    26    16    17 2   
    27    16    18 1   
    28    17    31 1   
    29    18    19 1   
    30    18    32 1   
    31    19    22 2   
    32    19    23 1   
    33    20    21 1   
    34    20    24 1   
    35    20    33 1   
    36    21    24 1   
    37    21    34 1   
    38    21    35 1   
    39    23    36 1   
    40    23    37 1   
    41    23    38 1   
    42    24    39 1   
    43    24    40 1   
@<TRIPOS>SUBSTRUCTURE
     1 OBY         1 TEMP              0 ****  ****    0 ROOT
