@<TRIPOS>MOLECULE
OBY
   40    43     1     0     0
SMALL
No Charge or Current Charge


@<TRIPOS>ATOM
      1 N1          91.9380    80.4860     0.4010 ns         1 OBY      -0.476900
      2 C1          91.9200    79.9950    -0.8830 c          1 OBY       0.639700
      3 O1          92.5720    79.0160    -1.2170 o          1 OBY      -0.603100
      4 C2          91.0510    80.7470    -1.8070 cc         1 OBY      -0.296600
      5 S1          90.8910    80.2790    -3.4970 ss         1 OBY       0.313000
      6 C3          89.7440    81.5880    -3.7550 cc         1 OBY      -0.147000
      7 C4          89.5550    82.3480    -2.6270 cd         1 OBY      -0.144000
      8 C5          90.2900    81.8630    -1.5110 cd         1 OBY      -0.101000
      9 C6          89.1330    81.9520    -5.0310 ca         1 OBY       0.003000
     10 C7          89.9370    82.0740    -6.1850 ca         1 OBY      -0.096000
     11 C8          89.3660    82.4320    -7.4260 ca         1 OBY      -0.111000
     12 C9          87.9820    82.6680    -7.5300 ca         1 OBY      -0.063000
     13 C10         87.1880    82.5320    -6.3810 ca         1 OBY      -0.197000
     14 C11         87.7470    82.1810    -5.1670 ca         1 OBY      -0.017800
     15 S2          85.4170    82.7720    -6.3250 ss         1 OBY       0.144400
     16 C12         85.4380    82.3480    -4.5840 cc         1 OBY       0.098200
     17 C13         86.7180    82.0720    -4.1550 cd         1 OBY      -0.256200
     18 N2          84.3580    82.2750    -3.7140 ns         1 OBY      -0.394100
     19 C14         83.0250    82.5140    -3.9800 c          1 OBY       0.596100
     20 C15         92.7100    79.9280     1.4770 cx         1 OBY       0.050700
     21 C16         92.8130    80.7270     2.7530 cx         1 OBY      -0.135400
     22 O2          82.6010    82.8400    -5.0790 o          1 OBY      -0.576100
     23 C17         82.1020    82.3390    -2.7800 c3         1 OBY      -0.170100
     24 C18         94.0060    80.6110     1.8370 cx         1 OBY      -0.135400
     25 H1          91.3590    81.2960     0.5740 hn         1 OBY       0.318500
     26 H4          88.9190    83.2270    -2.5900 ha         1 OBY       0.138000
     27 H6          90.2460    82.3400    -0.5360 ha         1 OBY       0.126000
     28 H8          91.0080    81.9030    -6.1200 ha         1 OBY       0.118000
     29 H9          89.9990    82.5290    -8.3050 ha         1 OBY       0.118000
     30 H10         87.5380    82.9430    -8.4840 ha         1 OBY       0.123000
     31 H11         86.9300    81.7760    -3.1330 ha         1 OBY       0.203000
     32 H12         84.5480    82.0140    -2.7550 hn         1 OBY       0.324500
     33 H13         92.6610    78.8400     1.5550 h1         1 OBY       0.091700
     34 H14         92.3030    81.6870     2.8020 hc         1 OBY       0.077950
     35 H15         92.8380    80.1780     3.6910 hc         1 OBY       0.077950
     36 H16         81.0520    82.5370    -3.0240 hc         1 OBY       0.068033
     37 H17         82.2390    81.3340    -2.3670 hc         1 OBY       0.068033
     38 H18         82.4540    82.9790    -1.9620 hc         1 OBY       0.068033
     39 H19         94.8340    79.9840     2.1580 hc         1 OBY       0.077950
     40 H20         94.2960    81.4900     1.2650 hc         1 OBY       0.077950
@<TRIPOS>BOND
     1     1     2 1   
     2     1    20 1   
     3     1    25 1   
     4     2     3 2   
     5     2     4 1   
     6     4     5 1   
     7     4     8 2   
     8     5     6 1   
     9     6     7 2   
    10     6     9 1   
    11     7     8 1   
    12     7    26 1   
    13     8    27 1   
    14     9    10 ar  
    15     9    14 ar  
    16    10    11 ar  
    17    10    28 1   
    18    11    12 ar  
    19    11    29 1   
    20    12    13 ar  
    21    12    30 1   
    22    13    14 ar  
    23    13    15 1   
    24    14    17 1   
    25    15    16 1   
    26    16    17 2   
    27    16    18 1   
    28    17    31 1   
    29    18    19 1   
    30    18    32 1   
    31    19    22 2   
    32    19    23 1   
    33    20    21 1   
    34    20    24 1   
    35    20    33 1   
    36    21    24 1   
    37    21    34 1   
    38    21    35 1   
    39    23    36 1   
    40    23    37 1   
    41    23    38 1   
    42    24    39 1   
    43    24    40 1   
@<TRIPOS>SUBSTRUCTURE
     1 OBY         1 TEMP              0 ****  ****    0 ROOT
