@<TRIPOS>MOLECULE
OBZ
   18    18     1     0     0
SMALL
No Charge or Current Charge


@<TRIPOS>ATOM
      1 O2           2.2240    -0.0980    -0.3990 os         1 OBZ      -0.284300
      2 C3           1.4150     0.0060     0.7950 c3         1 OBZ       0.214900
      3 C4          -0.0550     0.0120     0.3930 ca         1 OBZ      -0.096300
      4 C9          -0.7700    -1.1980     0.2930 ca         1 OBZ      -0.088500
      5 C8          -2.1280    -1.1920    -0.0740 ca         1 OBZ      -0.115500
      6 C7          -2.7780     0.0230    -0.3440 ca         1 OBZ      -0.103000
      7 C6          -2.0710     1.2330    -0.2470 ca         1 OBZ      -0.115500
      8 C5          -0.7140     1.2280     0.1200 ca         1 OBZ      -0.088500
      9 N1           3.6510    -0.1070    -0.0620 n8         1 OBZ      -0.753700
     10 H3           1.6060    -0.8400     1.4680 h1         1 OBZ       0.040200
     11 H3A          1.6470     0.9300     1.3420 h1         1 OBZ       0.040200
     12 H9          -0.2730    -2.1440     0.5000 ha         1 OBZ       0.113000
     13 H8          -2.6740    -2.1300    -0.1490 ha         1 OBZ       0.112000
     14 H7          -3.8290     0.0280    -0.6280 ha         1 OBZ       0.111000
     15 H6          -2.5730     2.1750    -0.4560 ha         1 OBZ       0.112000
     16 H5          -0.1720     2.1690     0.1920 ha         1 OBZ       0.113000
     17 HN1          4.0200    -0.9680    -0.4910 hn         1 OBZ       0.395000
     18 HN1A         4.0580     0.6660    -0.6070 hn         1 OBZ       0.395000
@<TRIPOS>BOND
     1     1     2 1   
     2     1     9 1   
     3     2     3 1   
     4     2    10 1   
     5     2    11 1   
     6     3     4 ar  
     7     3     8 ar  
     8     4     5 ar  
     9     4    12 1   
    10     5     6 ar  
    11     5    13 1   
    12     6     7 ar  
    13     6    14 1   
    14     7     8 ar  
    15     7    15 1   
    16     8    16 1   
    17     9    17 1   
    18     9    18 1   
@<TRIPOS>SUBSTRUCTURE
     1 OBZ         1 TEMP              0 ****  ****    0 ROOT
