@<TRIPOS>MOLECULE
OBZ
   18    18     1     0     0
SMALL
bcc


@<TRIPOS>ATOM
      1 O2           2.1540    -0.1800    -0.3800 os         1 OBZ      -0.261100
      2 C3           1.4120     0.0930     0.7940 c3         1 OBZ       0.191700
      3 C4          -0.0400     0.0650     0.4160 ca         1 OBZ      -0.096300
      4 C9          -0.6970    -1.1510     0.2390 ca         1 OBZ      -0.106500
      5 C8          -2.0290    -1.1860    -0.1460 ca         1 OBZ      -0.133500
      6 C7          -2.7230    -0.0010    -0.3600 ca         1 OBZ      -0.121000
      7 C6          -2.0770     1.2160    -0.1880 ca         1 OBZ      -0.133500
      8 C5          -0.7420     1.2450     0.1950 ca         1 OBZ      -0.106500
      9 N1           3.5310    -0.1850    -0.0700 n8         1 OBZ      -0.643300
     10 H3           1.6210    -0.6570     1.5650 h1         1 OBZ       0.040200
     11 H3A          1.6790     1.0730     1.2060 h1         1 OBZ       0.040200
     12 H9          -0.1640    -2.0790     0.4110 ha         1 OBZ       0.131000
     13 H8          -2.5290    -2.1370    -0.2770 ha         1 OBZ       0.130000
     14 H7          -3.7640    -0.0270    -0.6570 ha         1 OBZ       0.129000
     15 H6          -2.6110     2.1430    -0.3510 ha         1 OBZ       0.130000
     16 H5          -0.2430     2.1980     0.3300 ha         1 OBZ       0.131000
     17 HN1          3.8590    -1.1040    -0.3510 hn         1 OBZ       0.339800
     18 HN1A         3.9460     0.4660    -0.7280 hn         1 OBZ       0.339800
@<TRIPOS>BOND
     1     1     2 1   
     2     1     9 1   
     3     2     3 1   
     4     2    10 1   
     5     2    11 1   
     6     3     4 ar  
     7     3     8 ar  
     8     4     5 ar  
     9     4    12 1   
    10     5     6 ar  
    11     5    13 1   
    12     6     7 ar  
    13     6    14 1   
    14     7     8 ar  
    15     7    15 1   
    16     8    16 1   
    17     9    17 1   
    18     9    18 1   
@<TRIPOS>SUBSTRUCTURE
     1 OBZ         1 TEMP              0 ****  ****    0 ROOT
