@<TRIPOS>MOLECULE
OC1
    4     2     1     0     0
SMALL
abcg2


@<TRIPOS>ATOM
      1 CA          32.7470     4.0190    29.0550 DU         1 OC1       1.750000
      2 O1          32.4170     3.0210    27.1260 oh         1 OC1      -0.962000
      3 HO11        32.0820     2.1240    26.9890 ho         1 OC1       0.605500
      4 HO12        32.4970     3.4200    26.2490 ho         1 OC1       0.605500
@<TRIPOS>BOND
     1     2     3 1   
     2     2     4 1   
@<TRIPOS>SUBSTRUCTURE
     1 OC1         1 TEMP              0 ****  ****    0 ROOT
