@<TRIPOS>MOLECULE
OC9
   27    26     1     0     0
SMALL
No Charge or Current Charge


@<TRIPOS>ATOM
      1 CAA          5.2080    -0.3190    -0.0040 c3         1 OC9      -0.088100
      2 CAC          3.9160     0.5200    -0.0000 c3         1 OC9      -0.075400
      3 CAE          2.6350    -0.3420    -0.0010 c3         1 OC9      -0.075400
      4 CAG          1.3400     0.5000     0.0030 c3         1 OC9      -0.074400
      5 CAI          0.0580    -0.3620     0.0030 c3         1 OC9      -0.074400
      6 CAH         -1.2370     0.4800     0.0070 c3         1 OC9      -0.074400
      7 CAF         -2.5190    -0.3820     0.0070 c3         1 OC9      -0.081400
      8 CAD         -3.8100     0.4610     0.0110 c3         1 OC9       0.163600
      9 OAB         -4.9510    -0.4020     0.0100 oh         1 OC9      -0.662000
     10 HAA1         5.2570    -0.9610     0.8830 hc         1 OC9       0.031367
     11 HAA2         5.2540    -0.9560    -0.8960 hc         1 OC9       0.031367
     12 HAA3         6.0890     0.3340    -0.0040 hc         1 OC9       0.031367
     13 HAC1         3.9170     1.1710     0.8830 hc         1 OC9       0.036700
     14 HAC2         3.9140     1.1750    -0.8800 hc         1 OC9       0.036700
     15 HAE1         2.6390    -0.9920    -0.8840 hc         1 OC9       0.037700
     16 HAE2         2.6410    -0.9970     0.8790 hc         1 OC9       0.037700
     17 HAG1         1.3360     1.1500     0.8870 hc         1 OC9       0.036700
     18 HAG2         1.3330     1.1550    -0.8770 hc         1 OC9       0.036700
     19 HAI1         0.0620    -1.0130    -0.8810 hc         1 OC9       0.039700
     20 HAI2         0.0650    -1.0180     0.8830 hc         1 OC9       0.039700
     21 HAH1        -1.2410     1.1300     0.8910 hc         1 OC9       0.036700
     22 HAH2        -1.2430     1.1350    -0.8730 hc         1 OC9       0.036700
     23 HAF1        -2.5180    -1.0310    -0.8770 hc         1 OC9       0.052200
     24 HAF2        -2.5150    -1.0360     0.8870 hc         1 OC9       0.052200
     25 HAD1        -3.8200     1.1040     0.9010 h1         1 OC9       0.014700
     26 HAD2        -3.8230     1.1090    -0.8760 h1         1 OC9       0.014700
     27 HAB         -5.7460     0.1770     0.0130 ho         1 OC9       0.442000
@<TRIPOS>BOND
     1     1     2 1   
     2     1    10 1   
     3     1    11 1   
     4     1    12 1   
     5     2     3 1   
     6     2    13 1   
     7     2    14 1   
     8     3     4 1   
     9     3    15 1   
    10     3    16 1   
    11     4     5 1   
    12     4    17 1   
    13     4    18 1   
    14     5     6 1   
    15     5    19 1   
    16     5    20 1   
    17     6     7 1   
    18     6    21 1   
    19     6    22 1   
    20     7     8 1   
    21     7    23 1   
    22     7    24 1   
    23     8     9 1   
    24     8    25 1   
    25     8    26 1   
    26     9    27 1   
@<TRIPOS>SUBSTRUCTURE
     1 OC9         1 TEMP              0 ****  ****    0 ROOT
