@<TRIPOS>MOLECULE
OCA
   25    24     1     0     0
SMALL
abcg2


@<TRIPOS>ATOM
      1 C1          -5.6650     2.3980     6.1800 c          1 OCA       0.716000
      2 C2          -5.9500     1.5590     4.9220 c3         1 OCA      -0.203400
      3 C3          -4.9490     1.6890     3.7860 c3         1 OCA      -0.054400
      4 C4          -5.3300     0.8560     2.5680 c3         1 OCA      -0.079400
      5 C5          -4.3270     0.9540     1.4240 c3         1 OCA      -0.075400
      6 C6          -4.7290     0.1380     0.2020 c3         1 OCA      -0.076400
      7 C7          -3.7260     0.2200    -0.9420 c3         1 OCA      -0.076400
      8 C8          -4.1430    -0.5960    -2.1580 c3         1 OCA      -0.087100
      9 O1          -4.7860     3.2800     6.1080 o          1 OCA      -0.744500
     10 O2          -6.3610     2.1340     7.1840 o          1 OCA      -0.744500
     11 H21         -6.0420     0.5090     5.2200 hc         1 OCA       0.014200
     12 H22         -6.9480     1.8360     4.5580 hc         1 OCA       0.014200
     13 H31         -3.9540     1.3880     4.1320 hc         1 OCA       0.037700
     14 H32         -4.8590     2.7380     3.4920 hc         1 OCA       0.037700
     15 H41         -6.3170     1.1690     2.2080 hc         1 OCA       0.023700
     16 H42         -5.4380    -0.1940     2.8630 hc         1 OCA       0.023700
     17 H51         -4.2070     2.0030     1.1350 hc         1 OCA       0.033200
     18 H52         -3.3430     0.6230     1.7760 hc         1 OCA       0.033200
     19 H61         -4.8600    -0.9100     0.4940 hc         1 OCA       0.031700
     20 H62         -5.7100     0.4750    -0.1530 hc         1 OCA       0.031700
     21 H71         -3.5950     1.2670    -1.2330 hc         1 OCA       0.033700
     22 H72         -2.7460    -0.1200    -0.5900 hc         1 OCA       0.033700
     23 H81         -4.2450    -1.6540    -1.9070 hc         1 OCA       0.024700
     24 H82         -3.4120    -0.5180    -2.9630 hc         1 OCA       0.024700
     25 H83         -5.1040    -0.2580    -2.5500 hc         1 OCA       0.024700
@<TRIPOS>BOND
     1     1     2 1   
     2     1     9 1   
     3     1    10 1   
     4     2     3 1   
     5     2    11 1   
     6     2    12 1   
     7     3     4 1   
     8     3    13 1   
     9     3    14 1   
    10     4     5 1   
    11     4    15 1   
    12     4    16 1   
    13     5     6 1   
    14     5    17 1   
    15     5    18 1   
    16     6     7 1   
    17     6    19 1   
    18     6    20 1   
    19     7     8 1   
    20     7    21 1   
    21     7    22 1   
    22     8    23 1   
    23     8    24 1   
    24     8    25 1   
@<TRIPOS>SUBSTRUCTURE
     1 OCA         1 TEMP              0 ****  ****    0 ROOT
