@<TRIPOS>MOLECULE
OCA
   25    24     1     0     0
SMALL
No Charge or Current Charge


@<TRIPOS>ATOM
      1 C1          -5.6020     2.4250     6.1670 c          1 OCA       0.716000
      2 C2          -6.0980     1.6630     4.9240 c3         1 OCA      -0.203400
      3 C3          -5.0000     1.6500     3.8320 c3         1 OCA      -0.054400
      4 C4          -5.4270     0.9010     2.5490 c3         1 OCA      -0.079400
      5 C5          -4.3300     0.8910     1.4620 c3         1 OCA      -0.075400
      6 C6          -4.7570     0.1420     0.1800 c3         1 OCA      -0.076400
      7 C7          -3.6600     0.1310    -0.9080 c3         1 OCA      -0.076400
      8 C8          -4.0860    -0.6160    -2.1860 c3         1 OCA      -0.087100
      9 O1          -5.7890     3.6310     6.2170 o          1 OCA      -0.744500
     10 O2          -5.0030     1.7980     7.0280 o          1 OCA      -0.744500
     11 H21         -6.2890     0.6110     5.1690 hc         1 OCA       0.014200
     12 H22         -6.9590     2.1750     4.4780 hc         1 OCA       0.014200
     13 H31         -4.0940     1.1830     4.2370 hc         1 OCA       0.037700
     14 H32         -4.7370     2.6840     3.5740 hc         1 OCA       0.037700
     15 H41         -6.3320     1.3690     2.1430 hc         1 OCA       0.023700
     16 H42         -5.6880    -0.1330     2.8060 hc         1 OCA       0.023700
     17 H51         -4.0680     1.9250     1.2040 hc         1 OCA       0.033200
     18 H52         -3.4250     0.4220     1.8680 hc         1 OCA       0.033200
     19 H61         -5.0180    -0.8920     0.4370 hc         1 OCA       0.031700
     20 H62         -5.6620     0.6100    -0.2260 hc         1 OCA       0.031700
     21 H71         -3.3970     1.1630    -1.1690 hc         1 OCA       0.033700
     22 H72         -2.7540    -0.3390    -0.5060 hc         1 OCA       0.033700
     23 H81         -4.3220    -1.6630    -1.9630 hc         1 OCA       0.024700
     24 H82         -3.2770    -0.5970    -2.9270 hc         1 OCA       0.024700
     25 H83         -4.9710    -0.1480    -2.6330 hc         1 OCA       0.024700
@<TRIPOS>BOND
     1     1     2 1   
     2     1     9 1   
     3     1    10 1   
     4     2     3 1   
     5     2    11 1   
     6     2    12 1   
     7     3     4 1   
     8     3    13 1   
     9     3    14 1   
    10     4     5 1   
    11     4    15 1   
    12     4    16 1   
    13     5     6 1   
    14     5    17 1   
    15     5    18 1   
    16     6     7 1   
    17     6    19 1   
    18     6    20 1   
    19     7     8 1   
    20     7    21 1   
    21     7    22 1   
    22     8    23 1   
    23     8    24 1   
    24     8    25 1   
@<TRIPOS>SUBSTRUCTURE
     1 OCA         1 TEMP              0 ****  ****    0 ROOT
