@<TRIPOS>MOLECULE
OCB
   49    48     1     0     0
SMALL
abcg2


@<TRIPOS>ATOM
      1 CAA          8.5270     0.1530    -0.4900 c3         1 OCB      -0.088100
      2 CAB          7.2580     0.2930     0.3390 c3         1 OCB      -0.074400
      3 CAC          5.9900     0.1300    -0.4910 c3         1 OCB      -0.075400
      4 CAD          4.7120     0.2700     0.3260 c3         1 OCB      -0.074400
      5 CAE          3.4480     0.0850    -0.5030 c3         1 OCB      -0.076400
      6 CAF          2.1730     0.2320     0.3170 c3         1 OCB      -0.065400
      7 CAG          0.9280     0.0080    -0.5250 c3         1 OCB      -0.136400
      8 CAH         -0.3580     0.1480     0.2370 c          1 OCB       0.636100
      9 OAI         -0.4420     0.3890     1.4150 o          1 OCB      -0.508000
     10 OAK         -1.4130     0.0300    -0.5750 os         1 OCB      -0.462100
     11 CAP         -2.6880    -0.3170    -0.0280 c3         1 OCB       0.185300
     12 CAQ         -3.0790    -1.6640    -0.6140 c3         1 OCB      -0.235400
     13 CAR         -2.0580    -2.7890    -0.3430 c          1 OCB       0.729000
     14 OAL         -2.2070    -3.8210    -1.0240 o          1 OCB      -0.704500
     15 OAS         -1.2020    -2.5890     0.5390 o          1 OCB      -0.704500
     16 CAO         -3.7370     0.7030    -0.4320 c3         1 OCB       0.078600
     17 NAN         -3.6950     2.0710     0.2040 n4         1 OCB      -0.493000
     18 CAT         -2.5350     2.8820    -0.2670 c3         1 OCB       0.076567
     19 CAJ         -4.9480     2.7700    -0.2070 c3         1 OCB       0.076567
     20 CAM         -3.6650     1.9790     1.6900 c3         1 OCB       0.076567
     21 HAA1         9.4220     0.2550     0.1240 hc         1 OCB       0.031033
     22 HAA2         8.5710    -0.8230    -0.9780 hc         1 OCB       0.031033
     23 HAA3         8.5740     0.9120    -1.2720 hc         1 OCB       0.031033
     24 HAB1         7.2610    -0.4500     1.1430 hc         1 OCB       0.036700
     25 HAB2         7.2460     1.2700     0.8310 hc         1 OCB       0.036700
     26 HAC1         5.9880     0.8710    -1.2980 hc         1 OCB       0.037200
     27 HAC2         6.0020    -0.8500    -0.9810 hc         1 OCB       0.037200
     28 HAD1         4.7200    -0.4630     1.1410 hc         1 OCB       0.038700
     29 HAD2         4.6920     1.2550     0.8050 hc         1 OCB       0.038700
     30 HAE1         3.4410     0.8110    -1.3230 hc         1 OCB       0.038700
     31 HAE2         3.4650    -0.9040    -0.9760 hc         1 OCB       0.038700
     32 HAF1         2.1900    -0.4820     1.1450 hc         1 OCB       0.052200
     33 HAF2         2.1440     1.2270     0.7680 hc         1 OCB       0.052200
     34 HAG1         0.9050     0.7000    -1.3730 hc         1 OCB       0.080700
     35 HAG2         0.9360    -0.9950    -0.9650 hc         1 OCB       0.080700
     36 HAP         -2.6240    -0.4040     1.0560 h1         1 OCB       0.092700
     37 HAQ1        -4.0370    -1.9680    -0.1790 hc         1 OCB       0.040700
     38 HAQ2        -3.2520    -1.5740    -1.6910 hc         1 OCB       0.040700
     39 HAO1        -3.7230     0.8670    -1.5100 hx         1 OCB       0.089200
     40 HAO2        -4.7120     0.2920    -0.1690 hx         1 OCB       0.089200
     41 HAT1        -2.4730     2.8290    -1.3500 hx         1 OCB       0.092033
     42 HAT2        -2.6920     3.9120     0.0390 hx         1 OCB       0.092033
     43 HAT3        -1.6170     2.5250     0.1820 hx         1 OCB       0.092033
     44 HAJ1        -5.8050     2.2300     0.1840 hx         1 OCB       0.092033
     45 HAJ2        -4.9350     3.7810     0.1900 hx         1 OCB       0.092033
     46 HAJ3        -4.9980     2.8040    -1.2920 hx         1 OCB       0.092033
     47 HAM1        -2.7140     1.5700     2.0150 hx         1 OCB       0.092033
     48 HAM2        -3.7860     2.9780     2.1010 hx         1 OCB       0.092033
     49 HAM3        -4.4820     1.3460     2.0270 hx         1 OCB       0.092033
@<TRIPOS>BOND
     1     1     2 1   
     2     1    21 1   
     3     1    22 1   
     4     1    23 1   
     5     2     3 1   
     6     2    24 1   
     7     2    25 1   
     8     3     4 1   
     9     3    26 1   
    10     3    27 1   
    11     4     5 1   
    12     4    28 1   
    13     4    29 1   
    14     5     6 1   
    15     5    30 1   
    16     5    31 1   
    17     6     7 1   
    18     6    32 1   
    19     6    33 1   
    20     7     8 1   
    21     7    34 1   
    22     7    35 1   
    23     8     9 2   
    24     8    10 1   
    25    10    11 1   
    26    11    12 1   
    27    11    16 1   
    28    11    36 1   
    29    12    13 1   
    30    12    37 1   
    31    12    38 1   
    32    13    14 1   
    33    13    15 1   
    34    16    17 1   
    35    16    39 1   
    36    16    40 1   
    37    17    18 1   
    38    17    19 1   
    39    17    20 1   
    40    18    41 1   
    41    18    42 1   
    42    18    43 1   
    43    19    44 1   
    44    19    45 1   
    45    19    46 1   
    46    20    47 1   
    47    20    48 1   
    48    20    49 1   
@<TRIPOS>SUBSTRUCTURE
     1 OCB         1 TEMP              0 ****  ****    0 ROOT
