@<TRIPOS>MOLECULE
OCB
   49    48     1     0     0
SMALL
No Charge or Current Charge


@<TRIPOS>ATOM
      1 CAA          7.8410     1.5700    -0.6570 c3         1 OCB      -0.088100
      2 CAB          6.4130     1.6540    -0.0850 c3         1 OCB      -0.074400
      3 CAC          5.4910     0.5240    -0.5920 c3         1 OCB      -0.075400
      4 CAD          4.0590     0.6090    -0.0190 c3         1 OCB      -0.074400
      5 CAE          3.1370    -0.5210    -0.5270 c3         1 OCB      -0.076400
      6 CAF          1.7060    -0.4340     0.0460 c3         1 OCB      -0.065400
      7 CAG          0.7790    -1.5610    -0.4680 c3         1 OCB      -0.136400
      8 CAH         -0.6140    -1.4780     0.1570 c          1 OCB       0.636100
      9 OAI         -0.8920    -1.9640     1.2450 o          1 OCB      -0.508000
     10 OAK         -1.4300    -0.6290    -0.5470 os         1 OCB      -0.462100
     11 CAP         -2.8040    -0.4730    -0.1410 c3         1 OCB       0.185300
     12 CAQ         -3.6690    -1.4200    -1.0020 c3         1 OCB      -0.235400
     13 CAR         -3.4990    -2.8700    -0.5460 c          1 OCB       0.729000
     14 OAL         -2.6710    -3.5630    -1.1160 o          1 OCB      -0.704500
     15 OAS         -4.2010    -3.2610     0.3740 o          1 OCB      -0.704500
     16 CAO         -3.1920     1.0110    -0.3710 c3         1 OCB       0.078600
     17 NAN         -2.6080     2.1030     0.5540 n4         1 OCB      -0.493000
     18 CAT         -1.0840     2.1910     0.4050 c3         1 OCB       0.076567
     19 CAJ         -3.2160     3.4540     0.1550 c3         1 OCB       0.076567
     20 CAM         -2.9630     1.8160     2.0200 c3         1 OCB       0.076567
     21 HAA1         8.4570     2.3910    -0.2690 hc         1 OCB       0.031033
     22 HAA2         8.3160     0.6230    -0.3770 hc         1 OCB       0.031033
     23 HAA3         7.8260     1.6400    -1.7510 hc         1 OCB       0.031033
     24 HAB1         6.4650     1.6170     1.0100 hc         1 OCB       0.036700
     25 HAB2         5.9790     2.6260    -0.3520 hc         1 OCB       0.036700
     26 HAC1         5.4430     0.5640    -1.6880 hc         1 OCB       0.037200
     27 HAC2         5.9290    -0.4450    -0.3250 hc         1 OCB       0.037200
     28 HAD1         4.1070     0.5700     1.0770 hc         1 OCB       0.038700
     29 HAD2         3.6210     1.5790    -0.2860 hc         1 OCB       0.038700
     30 HAE1         3.0890    -0.4810    -1.6230 hc         1 OCB       0.038700
     31 HAE2         3.5750    -1.4910    -0.2600 hc         1 OCB       0.038700
     32 HAF1         1.7530    -0.4770     1.1420 hc         1 OCB       0.052200
     33 HAF2         1.2730     0.5380    -0.2190 hc         1 OCB       0.052200
     34 HAG1         0.6850    -1.4440    -1.5540 hc         1 OCB       0.080700
     35 HAG2         1.2210    -2.5320    -0.2200 hc         1 OCB       0.080700
     36 HAP         -2.9600    -0.7010     0.9230 h1         1 OCB       0.092700
     37 HAQ1        -4.7040    -1.1050    -0.8250 hc         1 OCB       0.040700
     38 HAQ2        -3.3430    -1.2940    -2.0420 hc         1 OCB       0.040700
     39 HAO1        -2.9290     1.2730    -1.3970 hx         1 OCB       0.089200
     40 HAO2        -4.2780     1.0810    -0.2830 hx         1 OCB       0.089200
     41 HAT1        -0.8340     2.3560    -0.6440 hx         1 OCB       0.092033
     42 HAT2        -0.7100     3.0190     1.0100 hx         1 OCB       0.092033
     43 HAT3        -0.6370     1.2570     0.7480 hx         1 OCB       0.092033
     44 HAJ1        -4.3010     3.4080     0.2670 hx         1 OCB       0.092033
     45 HAJ2        -2.8120     4.2360     0.8020 hx         1 OCB       0.092033
     46 HAJ3        -2.9620     3.6700    -0.8850 hx         1 OCB       0.092033
     47 HAM1        -2.5020     0.8750     2.3270 hx         1 OCB       0.092033
     48 HAM2        -2.5860     2.6270     2.6460 hx         1 OCB       0.092033
     49 HAM3        -4.0480     1.7480     2.1220 hx         1 OCB       0.092033
@<TRIPOS>BOND
     1     1     2 1   
     2     1    21 1   
     3     1    22 1   
     4     1    23 1   
     5     2     3 1   
     6     2    24 1   
     7     2    25 1   
     8     3     4 1   
     9     3    26 1   
    10     3    27 1   
    11     4     5 1   
    12     4    28 1   
    13     4    29 1   
    14     5     6 1   
    15     5    30 1   
    16     5    31 1   
    17     6     7 1   
    18     6    32 1   
    19     6    33 1   
    20     7     8 1   
    21     7    34 1   
    22     7    35 1   
    23     8     9 2   
    24     8    10 1   
    25    10    11 1   
    26    11    12 1   
    27    11    16 1   
    28    11    36 1   
    29    12    13 1   
    30    12    37 1   
    31    12    38 1   
    32    13    14 1   
    33    13    15 1   
    34    16    17 1   
    35    16    39 1   
    36    16    40 1   
    37    17    18 1   
    38    17    19 1   
    39    17    20 1   
    40    18    41 1   
    41    18    42 1   
    42    18    43 1   
    43    19    44 1   
    44    19    45 1   
    45    19    46 1   
    46    20    47 1   
    47    20    48 1   
    48    20    49 1   
@<TRIPOS>SUBSTRUCTURE
     1 OCB         1 TEMP              0 ****  ****    0 ROOT
