@<TRIPOS>MOLECULE
OCC
   85    87     1     0     0
SMALL
abcg2


@<TRIPOS>ATOM
      1 C5          -3.4640     1.9110    -0.5920 ce         1 OCC      -0.072200
      2 C10         -3.6500     0.7080    -1.4230 ce         1 OCC      -0.126200
      3 C1          -4.4740    -0.3750    -0.7690 c6         1 OCC       0.179500
      4 C2          -5.8070     0.1930    -0.2720 c6         1 OCC       0.193300
      5 C3          -5.5910     1.3890     0.6490 c6         1 OCC       0.178300
      6 C4          -4.7600     2.4600    -0.0670 c6         1 OCC      -0.074200
      7 C6          -2.2760     2.4630    -0.2910 cf         1 OCC      -0.155000
      8 C7          -0.9760     1.9520    -0.6770 cf         1 OCC      -0.196000
      9 C8           0.2120     2.5290    -0.4340 c2         1 OCC      -0.073400
     10 C14          1.5150     1.8950    -0.8080 c5         1 OCC      -0.038500
     11 C13          2.4340     1.6770     0.4220 c5         1 OCC      -0.034000
     12 C12          2.6980     3.0520     1.0410 c6         1 OCC      -0.063400
     13 C11          1.3970     3.7650     1.4110 c6         1 OCC      -0.072400
     14 C9           0.4200     3.8610     0.2340 c6         1 OCC      -0.042200
     15 C15          1.5530     0.5660    -1.5440 c5         1 OCC      -0.070400
     16 C16          2.9980     0.0770    -1.3320 c5         1 OCC      -0.077400
     17 C17          3.6460     0.9960    -0.2610 c5         1 OCC      -0.053700
     18 C19         -3.1680     0.5630    -2.6560 c2         1 OCC      -0.293000
     19 O2          -6.8620     1.8830     1.0040 oh         1 OCC      -0.709000
     20 O1          -3.7960    -0.9060     0.3490 oh         1 OCC      -0.696000
     21 C20          4.6670     0.2380     0.6010 c3         1 OCC      -0.046700
     22 C22          5.7820    -0.3130    -0.3000 c3         1 OCC      -0.077400
     23 C18          1.7720     0.7390     1.4340 c3         1 OCC      -0.079100
     24 C21          5.2480     1.0800     1.7330 c3         1 OCC      -0.087100
     25 C23          6.8350    -1.1600     0.4110 c3         1 OCC      -0.071400
     26 C24          7.7600    -1.8560    -0.5810 c3         1 OCC      -0.103400
     27 C25          8.8110    -2.7960     0.0280 c3         1 OCC       0.184000
     28 O25          8.1830    -3.8290     0.7780 oh         1 OCC      -0.660000
     29 C27          9.6500    -3.4040    -1.0960 c3         1 OCC      -0.100100
     30 C26          9.7190    -2.0590     1.0040 c3         1 OCC      -0.100100
     31 O28         -6.5580    -0.7670     0.4230 os         1 OCC      -0.428000
     32 C29         -7.2610    -1.6740    -0.3940 c3         1 OCC       0.165600
     33 C30         -8.1100    -2.5700     0.4880 c3         1 OCC      -0.085400
     34 C31         -8.9130    -3.5500    -0.3460 c3         1 OCC       0.164600
     35 O32         -9.6740    -4.3670     0.5180 oh         1 OCC      -0.658000
     36 H1          -4.6730    -1.1560    -1.5160 h1         1 OCC       0.034700
     37 H2          -6.3600     0.5440    -1.1600 h1         1 OCC       0.045700
     38 H3          -5.0400     1.0580     1.5400 h1         1 OCC       0.064700
     39 H41         -4.5790     3.2950     0.6140 hc         1 OCC       0.053200
     40 H42         -5.3570     2.8450    -0.9020 hc         1 OCC       0.053200
     41 H6          -2.2980     3.3500     0.3340 ha         1 OCC       0.171000
     42 H7          -0.9790     1.0020    -1.2000 ha         1 OCC       0.173000
     43 H14          2.0460     2.6280    -1.4380 hc         1 OCC       0.052700
     44 H121         3.2460     3.6630     0.3140 hc         1 OCC       0.041700
     45 H122         3.3330     2.9850     1.9260 hc         1 OCC       0.041700
     46 H111         1.6230     4.7720     1.7700 hc         1 OCC       0.041700
     47 H112         0.9120     3.2490     2.2440 hc         1 OCC       0.041700
     48 H91          0.8490     4.5430    -0.5110 hc         1 OCC       0.046200
     49 H92         -0.5150     4.3130     0.5650 hc         1 OCC       0.046200
     50 H151         1.2890     0.6700    -2.5970 hc         1 OCC       0.043200
     51 H152         0.8460    -0.1430    -1.1090 hc         1 OCC       0.043200
     52 H161         3.5680     0.0960    -2.2610 hc         1 OCC       0.040700
     53 H162         3.0070    -0.9620    -0.9930 hc         1 OCC       0.040700
     54 H17          4.1940     1.7950    -0.7820 hc         1 OCC       0.043700
     55 H191        -3.3560    -0.3370    -3.2290 ha         1 OCC       0.169000
     56 H192        -2.5850     1.3370    -3.1380 ha         1 OCC       0.169000
     57 HO2         -6.7380     2.5810     1.6550 ho         1 OCC       0.501000
     58 HO1         -2.9340    -1.2180     0.0540 ho         1 OCC       0.501000
     59 H20          4.1580    -0.6260     1.0490 hc         1 OCC       0.047700
     60 H221         5.3330    -0.9240    -1.0880 hc         1 OCC       0.035700
     61 H222         6.2730     0.5240    -0.8120 hc         1 OCC       0.035700
     62 H181         0.7970     1.1110     1.7480 hc         1 OCC       0.035700
     63 H182         1.6090    -0.2600     1.0260 hc         1 OCC       0.035700
     64 H183         2.3830     0.6320     2.3310 hc         1 OCC       0.035700
     65 H211         5.7200     1.9890     1.3510 hc         1 OCC       0.033367
     66 H212         4.4880     1.3760     2.4540 hc         1 OCC       0.033367
     67 H213         6.0040     0.5260     2.2910 hc         1 OCC       0.033367
     68 H231         7.4280    -0.5350     1.0820 hc         1 OCC       0.046700
     69 H232         6.3380    -1.9060     1.0380 hc         1 OCC       0.046700
     70 H241         7.1520    -2.4310    -1.2910 hc         1 OCC       0.038700
     71 H242         8.2780    -1.1010    -1.1820 hc         1 OCC       0.038700
     72 H25          7.6020    -4.3190     0.1860 ho         1 OCC       0.438000
     73 H271        10.1740    -2.6290    -1.6590 hc         1 OCC       0.041200
     74 H272        10.3980    -4.0910    -0.6970 hc         1 OCC       0.041200
     75 H273         9.0240    -3.9550    -1.8020 hc         1 OCC       0.041200
     76 H261         9.1690    -1.6840     1.8680 hc         1 OCC       0.041200
     77 H262        10.5120    -2.7140     1.3710 hc         1 OCC       0.041200
     78 H263        10.1940    -1.2070     0.5150 hc         1 OCC       0.041200
     79 H291        -7.9000    -1.1310    -1.1050 h1         1 OCC       0.015700
     80 H292        -6.5760    -2.2910    -0.9920 h1         1 OCC       0.015700
     81 H301        -7.4640    -3.1200     1.1790 hc         1 OCC       0.069200
     82 H302        -8.7880    -1.9550     1.0860 hc         1 OCC       0.069200
     83 H311        -9.5590    -2.9940    -1.0400 h1         1 OCC       0.013200
     84 H312        -8.2310    -4.1490    -0.9640 h1         1 OCC       0.013200
     85 H32        -10.1850    -4.9760    -0.0220 ho         1 OCC       0.441000
@<TRIPOS>BOND
     1     1     2 1   
     2     1     6 1   
     3     1     7 2   
     4     2     3 1   
     5     2    18 2   
     6     3     4 1   
     7     3    20 1   
     8     3    36 1   
     9     4     5 1   
    10     4    31 1   
    11     4    37 1   
    12     5     6 1   
    13     5    19 1   
    14     5    38 1   
    15     6    39 1   
    16     6    40 1   
    17     7     8 1   
    18     7    41 1   
    19     8     9 2   
    20     8    42 1   
    21     9    10 1   
    22     9    14 1   
    23    10    11 1   
    24    10    15 1   
    25    10    43 1   
    26    11    12 1   
    27    11    17 1   
    28    11    23 1   
    29    12    13 1   
    30    12    44 1   
    31    12    45 1   
    32    13    14 1   
    33    13    46 1   
    34    13    47 1   
    35    14    48 1   
    36    14    49 1   
    37    15    16 1   
    38    15    50 1   
    39    15    51 1   
    40    16    17 1   
    41    16    52 1   
    42    16    53 1   
    43    17    21 1   
    44    17    54 1   
    45    18    55 1   
    46    18    56 1   
    47    19    57 1   
    48    20    58 1   
    49    21    22 1   
    50    21    24 1   
    51    21    59 1   
    52    22    25 1   
    53    22    60 1   
    54    22    61 1   
    55    23    62 1   
    56    23    63 1   
    57    23    64 1   
    58    24    65 1   
    59    24    66 1   
    60    24    67 1   
    61    25    26 1   
    62    25    68 1   
    63    25    69 1   
    64    26    27 1   
    65    26    70 1   
    66    26    71 1   
    67    27    28 1   
    68    27    29 1   
    69    27    30 1   
    70    28    72 1   
    71    29    73 1   
    72    29    74 1   
    73    29    75 1   
    74    30    76 1   
    75    30    77 1   
    76    30    78 1   
    77    31    32 1   
    78    32    33 1   
    79    32    79 1   
    80    32    80 1   
    81    33    34 1   
    82    33    81 1   
    83    33    82 1   
    84    34    35 1   
    85    34    83 1   
    86    34    84 1   
    87    35    85 1   
@<TRIPOS>SUBSTRUCTURE
     1 OCC         1 TEMP              0 ****  ****    0 ROOT
