@<TRIPOS>MOLECULE
OCC
   85    87     1     0     0
SMALL
No Charge or Current Charge


@<TRIPOS>ATOM
      1 C5          -3.5620     1.8680    -0.4640 ce         1 OCC      -0.072200
      2 C10         -3.7720     0.6930    -1.3300 ce         1 OCC      -0.126200
      3 C1          -4.7660    -0.3480    -0.7940 c6         1 OCC       0.179500
      4 C2          -6.1120     0.3290    -0.3480 c6         1 OCC       0.193300
      5 C3          -5.8350     1.5250     0.6220 c6         1 OCC       0.178300
      6 C4          -4.8670     2.5440    -0.0300 c6         1 OCC      -0.074200
      7 C6          -2.3500     2.3910    -0.1100 cf         1 OCC      -0.155000
      8 C7          -1.0390     1.8320    -0.4550 cf         1 OCC      -0.196000
      9 C8           0.1820     2.4150    -0.2850 c2         1 OCC      -0.073400
     10 C14          1.5070     1.7470    -0.7000 c5         1 OCC      -0.038500
     11 C13          2.4640     1.6540     0.5370 c5         1 OCC      -0.034000
     12 C12          2.7520     3.1130     1.0260 c6         1 OCC      -0.063400
     13 C11          1.4470     3.8700     1.4020 c6         1 OCC      -0.072400
     14 C9           0.3930     3.8330     0.2650 c6         1 OCC      -0.042200
     15 C15          1.4320     0.2700    -1.1660 c5         1 OCC      -0.070400
     16 C16          2.9190    -0.1910    -1.0440 c5         1 OCC      -0.077400
     17 C17          3.6720     0.9160    -0.2020 c5         1 OCC      -0.053700
     18 C19         -3.1760     0.5470    -2.5340 c2         1 OCC      -0.293000
     19 O2          -7.0540     2.1980     1.0070 oh         1 OCC      -0.709000
     20 O1          -4.1350    -1.0830     0.2680 oh         1 OCC      -0.696000
     21 C20          4.9070     0.3330     0.6090 c3         1 OCC      -0.046700
     22 C22          5.9640    -0.3130    -0.3440 c3         1 OCC      -0.077400
     23 C18          1.9110     0.8180     1.7440 c3         1 OCC      -0.079100
     24 C21          5.5650     1.3710     1.5550 c3         1 OCC      -0.087100
     25 C23          7.0770    -1.1410     0.3480 c3         1 OCC      -0.071400
     26 C24          7.9820    -1.8900    -0.6670 c3         1 OCC      -0.103400
     27 C25          9.0970    -2.7950    -0.0610 c3         1 OCC       0.184000
     28 O25          8.4850    -3.8040     0.7440 oh         1 OCC      -0.660000
     29 C27          9.8720    -3.5110    -1.1910 c3         1 OCC      -0.100100
     30 C26         10.0790    -2.0020     0.8350 c3         1 OCC      -0.100100
     31 O28         -7.0480    -0.6130     0.2500 os         1 OCC      -0.428000
     32 C29         -7.5220    -1.6860    -0.5810 c3         1 OCC       0.165600
     33 C30         -8.5560    -2.4840     0.2310 c3         1 OCC      -0.085400
     34 C31         -9.1410    -3.6660    -0.5610 c3         1 OCC       0.164600
     35 O32        -10.0940    -4.3650     0.2470 oh         1 OCC      -0.658000
     36 H1          -5.0010    -1.0390    -1.6170 h1         1 OCC       0.034700
     37 H2          -6.5880     0.7410    -1.2500 h1         1 OCC       0.045700
     38 H3          -5.3400     1.1150     1.5160 h1         1 OCC       0.064700
     39 H41         -4.6630     3.3620     0.6750 hc         1 OCC       0.053200
     40 H42         -5.3440     3.0040    -0.9060 hc         1 OCC       0.053200
     41 H6          -2.3680     3.2870     0.5070 ha         1 OCC       0.171000
     42 H7          -1.0810     0.8390    -0.8980 ha         1 OCC       0.173000
     43 H14          1.9570     2.3540    -1.4970 hc         1 OCC       0.052700
     44 H121         3.2740     3.6700     0.2360 hc         1 OCC       0.041700
     45 H122         3.4170     3.1240     1.8950 hc         1 OCC       0.041700
     46 H111         1.6860     4.9140     1.6460 hc         1 OCC       0.041700
     47 H112         1.0140     3.4420     2.3160 hc         1 OCC       0.041700
     48 H91          0.7380     4.4740    -0.5580 hc         1 OCC       0.046200
     49 H92         -0.5310     4.2940     0.6260 hc         1 OCC       0.046200
     50 H151         1.0520     0.1790    -2.1900 hc         1 OCC       0.043200
     51 H152         0.7860    -0.3440    -0.5290 hc         1 OCC       0.043200
     52 H161         3.3760    -0.3060    -2.0330 hc         1 OCC       0.040700
     53 H162         2.9710    -1.1750    -0.5630 hc         1 OCC       0.040700
     54 H17          4.1240     1.6290    -0.9040 hc         1 OCC       0.043700
     55 H191        -3.3570    -0.3210    -3.1690 ha         1 OCC       0.169000
     56 H192        -2.4920     1.3000    -2.9270 ha         1 OCC       0.169000
     57 HO2         -6.8290     2.7760     1.7720 ho         1 OCC       0.501000
     58 HO1         -3.2010    -1.2020    -0.0110 ho         1 OCC       0.501000
     59 H20          4.5290    -0.4730     1.2510 hc         1 OCC       0.047700
     60 H221         5.4550    -0.9820    -1.0450 hc         1 OCC       0.035700
     61 H222         6.4280     0.4740    -0.9520 hc         1 OCC       0.035700
     62 H181         0.9060     1.1360     2.0420 hc         1 OCC       0.035700
     63 H182         1.8540    -0.2540     1.5250 hc         1 OCC       0.035700
     64 H183         2.5590     0.9200     2.6220 hc         1 OCC       0.035700
     65 H211         5.8210     2.2900     1.0130 hc         1 OCC       0.033367
     66 H212         4.8920     1.6210     2.3810 hc         1 OCC       0.033367
     67 H213         6.4750     0.9850     2.0230 hc         1 OCC       0.033367
     68 H231         7.7030    -0.4770     0.9520 hc         1 OCC       0.046700
     69 H232         6.6130    -1.8630     1.0310 hc         1 OCC       0.046700
     70 H241         7.3430    -2.5050    -1.3140 hc         1 OCC       0.038700
     71 H242         8.4520    -1.1480    -1.3240 hc         1 OCC       0.038700
     72 H25          7.8080    -4.2400     0.1850 ho         1 OCC       0.438000
     73 H271        10.3810    -2.7820    -1.8340 hc         1 OCC       0.041200
     74 H272        10.6320    -4.1870    -0.7800 hc         1 OCC       0.041200
     75 H273         9.1970    -4.1030    -1.8210 hc         1 OCC       0.041200
     76 H261         9.5770    -1.5970     1.7210 hc         1 OCC       0.041200
     77 H262        10.8950    -2.6470     1.1840 hc         1 OCC       0.041200
     78 H263        10.5230    -1.1670     0.2790 hc         1 OCC       0.041200
     79 H291        -7.9930    -1.2910    -1.4910 h1         1 OCC       0.015700
     80 H292        -6.6990    -2.3510    -0.8720 h1         1 OCC       0.015700
     81 H301        -8.0820    -2.8600     1.1460 hc         1 OCC       0.069200
     82 H302        -9.3690    -1.8140     0.5350 hc         1 OCC       0.069200
     83 H311        -9.6220    -3.2900    -1.4740 h1         1 OCC       0.013200
     84 H312        -8.3280    -4.3420    -0.8580 h1         1 OCC       0.013200
     85 H32        -10.4390    -5.1070    -0.2970 ho         1 OCC       0.441000
@<TRIPOS>BOND
     1     1     2 1   
     2     1     6 1   
     3     1     7 2   
     4     2     3 1   
     5     2    18 2   
     6     3     4 1   
     7     3    20 1   
     8     3    36 1   
     9     4     5 1   
    10     4    31 1   
    11     4    37 1   
    12     5     6 1   
    13     5    19 1   
    14     5    38 1   
    15     6    39 1   
    16     6    40 1   
    17     7     8 1   
    18     7    41 1   
    19     8     9 2   
    20     8    42 1   
    21     9    10 1   
    22     9    14 1   
    23    10    11 1   
    24    10    15 1   
    25    10    43 1   
    26    11    12 1   
    27    11    17 1   
    28    11    23 1   
    29    12    13 1   
    30    12    44 1   
    31    12    45 1   
    32    13    14 1   
    33    13    46 1   
    34    13    47 1   
    35    14    48 1   
    36    14    49 1   
    37    15    16 1   
    38    15    50 1   
    39    15    51 1   
    40    16    17 1   
    41    16    52 1   
    42    16    53 1   
    43    17    21 1   
    44    17    54 1   
    45    18    55 1   
    46    18    56 1   
    47    19    57 1   
    48    20    58 1   
    49    21    22 1   
    50    21    24 1   
    51    21    59 1   
    52    22    25 1   
    53    22    60 1   
    54    22    61 1   
    55    23    62 1   
    56    23    63 1   
    57    23    64 1   
    58    24    65 1   
    59    24    66 1   
    60    24    67 1   
    61    25    26 1   
    62    25    68 1   
    63    25    69 1   
    64    26    27 1   
    65    26    70 1   
    66    26    71 1   
    67    27    28 1   
    68    27    29 1   
    69    27    30 1   
    70    28    72 1   
    71    29    73 1   
    72    29    74 1   
    73    29    75 1   
    74    30    76 1   
    75    30    77 1   
    76    30    78 1   
    77    31    32 1   
    78    32    33 1   
    79    32    79 1   
    80    32    80 1   
    81    33    34 1   
    82    33    81 1   
    83    33    82 1   
    84    34    35 1   
    85    34    83 1   
    86    34    84 1   
    87    35    85 1   
@<TRIPOS>SUBSTRUCTURE
     1 OCC         1 TEMP              0 ****  ****    0 ROOT
