@<TRIPOS>MOLECULE
OCD
   55    54     1     0     0
SMALL
No Charge or Current Charge


@<TRIPOS>ATOM
      1 C1          10.3290    -0.3070     0.1720 c          1 OCD       0.574900
      2 O1          10.8410    -0.8090    -0.8230 o          1 OCD      -0.513100
      3 C2           9.0630     0.5530     0.1200 c3         1 OCD      -0.204400
      4 C3           7.7840    -0.3170     0.1250 c3         1 OCD      -0.066400
      5 C4           6.4870     0.5200     0.0950 c3         1 OCD      -0.075400
      6 C5           5.2080    -0.3460     0.0980 c3         1 OCD      -0.074400
      7 C6           3.9110     0.4920     0.0670 c3         1 OCD      -0.074400
      8 C7           2.6320    -0.3740     0.0710 c3         1 OCD      -0.074400
      9 C8           1.3350     0.4640     0.0400 c3         1 OCD      -0.074400
     10 C9           0.0560    -0.4020     0.0440 c3         1 OCD      -0.074400
     11 C10         -1.2410     0.4360     0.0130 c3         1 OCD      -0.074400
     12 C11         -2.5200    -0.4300     0.0170 c3         1 OCD      -0.074400
     13 C12         -3.8170     0.4080    -0.0140 c3         1 OCD      -0.074400
     14 C13         -5.0960    -0.4580    -0.0100 c3         1 OCD      -0.074400
     15 C14         -6.3930     0.3800    -0.0410 c3         1 OCD      -0.074400
     16 C15         -7.6720    -0.4860    -0.0370 c3         1 OCD      -0.074400
     17 C16         -8.9690     0.3520    -0.0680 c3         1 OCD      -0.075400
     18 C17        -10.2480    -0.5140    -0.0640 c3         1 OCD      -0.074400
     19 C18        -11.5420     0.3210    -0.0950 c3         1 OCD      -0.088100
     20 H1          10.7590    -0.4710     1.1850 h4         1 OCD      -0.021800
     21 H2           9.0390     1.1840     1.0170 hc         1 OCD       0.067200
     22 H3           9.0780     1.1670    -0.7880 hc         1 OCD       0.067200
     23 H4           7.8000    -0.9890    -0.7430 hc         1 OCD       0.042700
     24 H5           7.7810    -0.9530     1.0210 hc         1 OCD       0.042700
     25 H6           6.4700     1.1910     0.9630 hc         1 OCD       0.040200
     26 H7           6.4890     1.1550    -0.8010 hc         1 OCD       0.040200
     27 H8           5.2240    -1.0160    -0.7700 hc         1 OCD       0.038700
     28 H9           5.2050    -0.9800     0.9930 hc         1 OCD       0.038700
     29 H10          3.8940     1.1630     0.9360 hc         1 OCD       0.038200
     30 H11          3.9130     1.1270    -0.8280 hc         1 OCD       0.038200
     31 H12          2.6480    -1.0440    -0.7970 hc         1 OCD       0.037700
     32 H13          2.6290    -1.0090     0.9660 hc         1 OCD       0.037700
     33 H14          1.3180     1.1340     0.9080 hc         1 OCD       0.037200
     34 H15          1.3370     1.0980    -0.8550 hc         1 OCD       0.037200
     35 H16          0.0720    -1.0730    -0.8240 hc         1 OCD       0.037200
     36 H17          0.0530    -1.0370     0.9390 hc         1 OCD       0.037200
     37 H18         -1.2580     1.1060     0.8810 hc         1 OCD       0.037200
     38 H19         -1.2390     1.0700    -0.8820 hc         1 OCD       0.037200
     39 H20         -2.5040    -1.1010    -0.8510 hc         1 OCD       0.037200
     40 H21         -2.5230    -1.0650     0.9120 hc         1 OCD       0.037200
     41 H22         -3.8340     1.0780     0.8540 hc         1 OCD       0.037200
     42 H23         -3.8150     1.0420    -0.9090 hc         1 OCD       0.037200
     43 H24         -5.0800    -1.1290    -0.8780 hc         1 OCD       0.036700
     44 H25         -5.0990    -1.0930     0.8850 hc         1 OCD       0.036700
     45 H26         -6.4100     1.0500     0.8270 hc         1 OCD       0.036700
     46 H27         -6.3910     1.0140    -0.9370 hc         1 OCD       0.036700
     47 H28         -7.6560    -1.1570    -0.9050 hc         1 OCD       0.036700
     48 H29         -7.6750    -1.1200     0.8580 hc         1 OCD       0.036700
     49 H30         -8.9860     1.0230     0.8000 hc         1 OCD       0.036700
     50 H31         -8.9670     0.9860    -0.9640 hc         1 OCD       0.036700
     51 H32        -10.2360    -1.1850    -0.9320 hc         1 OCD       0.036700
     52 H33        -10.2550    -1.1480     0.8310 hc         1 OCD       0.036700
     53 H34        -12.4210    -0.3350    -0.0910 hc         1 OCD       0.031367
     54 H35        -11.6010     0.9790     0.7800 hc         1 OCD       0.031367
     55 H36        -11.5820     0.9420    -0.9990 hc         1 OCD       0.031367
@<TRIPOS>BOND
     1     1     2 2   
     2     1     3 1   
     3     1    20 1   
     4     3     4 1   
     5     3    21 1   
     6     3    22 1   
     7     4     5 1   
     8     4    23 1   
     9     4    24 1   
    10     5     6 1   
    11     5    25 1   
    12     5    26 1   
    13     6     7 1   
    14     6    27 1   
    15     6    28 1   
    16     7     8 1   
    17     7    29 1   
    18     7    30 1   
    19     8     9 1   
    20     8    31 1   
    21     8    32 1   
    22     9    10 1   
    23     9    33 1   
    24     9    34 1   
    25    10    11 1   
    26    10    35 1   
    27    10    36 1   
    28    11    12 1   
    29    11    37 1   
    30    11    38 1   
    31    12    13 1   
    32    12    39 1   
    33    12    40 1   
    34    13    14 1   
    35    13    41 1   
    36    13    42 1   
    37    14    15 1   
    38    14    43 1   
    39    14    44 1   
    40    15    16 1   
    41    15    45 1   
    42    15    46 1   
    43    16    17 1   
    44    16    47 1   
    45    16    48 1   
    46    17    18 1   
    47    17    49 1   
    48    17    50 1   
    49    18    19 1   
    50    18    51 1   
    51    18    52 1   
    52    19    53 1   
    53    19    54 1   
    54    19    55 1   
@<TRIPOS>SUBSTRUCTURE
     1 OCD         1 TEMP              0 ****  ****    0 ROOT
