@<TRIPOS>MOLECULE
OCD
   55    54     1     0     0
SMALL
abcg2


@<TRIPOS>ATOM
      1 C1          10.1730    -0.2510     0.2180 c          1 OCD       0.574900
      2 O1          11.1030    -0.2500    -0.5510 o          1 OCD      -0.513100
      3 C2           8.9300     0.5670     0.0770 c3         1 OCD      -0.204400
      4 C3           7.6770    -0.3120     0.1170 c3         1 OCD      -0.066400
      5 C4           6.3950     0.5100     0.0700 c3         1 OCD      -0.075400
      6 C5           5.1380    -0.3500     0.0920 c3         1 OCD      -0.074400
      7 C6           3.8540     0.4700     0.0490 c3         1 OCD      -0.074400
      8 C7           2.5930    -0.3860     0.0670 c3         1 OCD      -0.074400
      9 C8           1.3100     0.4340     0.0280 c3         1 OCD      -0.074400
     10 C9           0.0480    -0.4190     0.0410 c3         1 OCD      -0.074400
     11 C10         -1.2340     0.4040     0.0060 c3         1 OCD      -0.074400
     12 C11         -2.4980    -0.4460     0.0170 c3         1 OCD      -0.074400
     13 C12         -3.7780     0.3800    -0.0170 c3         1 OCD      -0.074400
     14 C13         -5.0440    -0.4680    -0.0070 c3         1 OCD      -0.074400
     15 C14         -6.3220     0.3610    -0.0370 c3         1 OCD      -0.074400
     16 C15         -7.5910    -0.4820    -0.0280 c3         1 OCD      -0.074400
     17 C16         -8.8660     0.3510    -0.0600 c3         1 OCD      -0.075400
     18 C17        -10.1390    -0.4870    -0.0490 c3         1 OCD      -0.074400
     19 C18        -11.4020     0.3620    -0.0830 c3         1 OCD      -0.088100
     20 H1          10.1880    -0.8960     1.1160 h4         1 OCD      -0.021800
     21 H2           8.9020     1.2600     0.9270 hc         1 OCD       0.067200
     22 H3           8.9690     1.1610    -0.8380 hc         1 OCD       0.067200
     23 H4           7.6950    -1.0110    -0.7240 hc         1 OCD       0.042700
     24 H5           7.6850    -0.9210     1.0260 hc         1 OCD       0.042700
     25 H6           6.3790     1.2040     0.9180 hc         1 OCD       0.040200
     26 H7           6.3950     1.1320    -0.8330 hc         1 OCD       0.040200
     27 H8           5.1560    -1.0410    -0.7580 hc         1 OCD       0.038700
     28 H9           5.1410    -0.9750     0.9920 hc         1 OCD       0.038700
     29 H10          3.8360     1.1600     0.9000 hc         1 OCD       0.038200
     30 H11          3.8540     1.0970    -0.8490 hc         1 OCD       0.038200
     31 H12          2.6100    -1.0750    -0.7860 hc         1 OCD       0.037700
     32 H13          2.5950    -1.0160     0.9640 hc         1 OCD       0.037700
     33 H14          1.2920     1.1210     0.8820 hc         1 OCD       0.037200
     34 H15          1.3110     1.0670    -0.8670 hc         1 OCD       0.037200
     35 H16          0.0640    -1.1030    -0.8140 hc         1 OCD       0.037200
     36 H17          0.0470    -1.0530     0.9350 hc         1 OCD       0.037200
     37 H18         -1.2500     1.0880     0.8620 hc         1 OCD       0.037200
     38 H19         -1.2320     1.0400    -0.8880 hc         1 OCD       0.037200
     39 H20         -2.4830    -1.1290    -0.8400 hc         1 OCD       0.037200
     40 H21         -2.5000    -1.0820     0.9100 hc         1 OCD       0.037200
     41 H22         -3.7920     1.0610     0.8410 hc         1 OCD       0.037200
     42 H23         -3.7750     1.0170    -0.9080 hc         1 OCD       0.037200
     43 H24         -5.0320    -1.1480    -0.8660 hc         1 OCD       0.036700
     44 H25         -5.0470    -1.1070     0.8840 hc         1 OCD       0.036700
     45 H26         -6.3330     1.0410     0.8230 hc         1 OCD       0.036700
     46 H27         -6.3180     1.0010    -0.9270 hc         1 OCD       0.036700
     47 H28         -7.5800    -1.1620    -0.8880 hc         1 OCD       0.036700
     48 H29         -7.5960    -1.1210     0.8620 hc         1 OCD       0.036700
     49 H30         -8.8750     1.0340     0.7970 hc         1 OCD       0.036700
     50 H31         -8.8610     0.9880    -0.9520 hc         1 OCD       0.036700
     51 H32        -10.1300    -1.1690    -0.9050 hc         1 OCD       0.036700
     52 H33        -10.1460    -1.1220     0.8430 hc         1 OCD       0.036700
     53 H34        -12.3030    -0.2520    -0.0760 hc         1 OCD       0.031367
     54 H35        -11.4500     1.0290     0.7800 hc         1 OCD       0.031367
     55 H36        -11.4330     0.9830    -0.9800 hc         1 OCD       0.031367
@<TRIPOS>BOND
     1     1     2 2   
     2     1     3 1   
     3     1    20 1   
     4     3     4 1   
     5     3    21 1   
     6     3    22 1   
     7     4     5 1   
     8     4    23 1   
     9     4    24 1   
    10     5     6 1   
    11     5    25 1   
    12     5    26 1   
    13     6     7 1   
    14     6    27 1   
    15     6    28 1   
    16     7     8 1   
    17     7    29 1   
    18     7    30 1   
    19     8     9 1   
    20     8    31 1   
    21     8    32 1   
    22     9    10 1   
    23     9    33 1   
    24     9    34 1   
    25    10    11 1   
    26    10    35 1   
    27    10    36 1   
    28    11    12 1   
    29    11    37 1   
    30    11    38 1   
    31    12    13 1   
    32    12    39 1   
    33    12    40 1   
    34    13    14 1   
    35    13    41 1   
    36    13    42 1   
    37    14    15 1   
    38    14    43 1   
    39    14    44 1   
    40    15    16 1   
    41    15    45 1   
    42    15    46 1   
    43    16    17 1   
    44    16    47 1   
    45    16    48 1   
    46    17    18 1   
    47    17    49 1   
    48    17    50 1   
    49    18    19 1   
    50    18    51 1   
    51    18    52 1   
    52    19    53 1   
    53    19    54 1   
    54    19    55 1   
@<TRIPOS>SUBSTRUCTURE
     1 OCD         1 TEMP              0 ****  ****    0 ROOT
