@<TRIPOS>MOLECULE
OCE
   24    23     1     0     0
SMALL
bcc


@<TRIPOS>ATOM
      1 OAO          4.6080     1.2290    -0.0160 o          1 OCE      -0.860550
      2 OAP         -4.5440    -1.2230    -0.1840 o          1 OCE      -0.860550
      3 CAX          0.6200    -0.4430    -0.0020 c3         1 OCE      -0.079900
      4 CAY         -0.5840     0.4910    -0.0010 c3         1 OCE      -0.079900
      5 CAZ          1.9580     0.2880     0.0240 c3         1 OCE      -0.055900
      6 CBA         -1.9170    -0.2480    -0.0210 c3         1 OCE      -0.055900
      7 CBN          3.1440    -0.6630     0.0310 c3         1 OCE      -0.199900
      8 CBO         -3.1160     0.6860    -0.0030 c3         1 OCE      -0.199900
      9 CCW          4.5390    -0.0140     0.0520 c          1 OCE       0.925100
     10 CCX         -4.4980     0.0100    -0.0010 c          1 OCE       0.925100
     11 HAX          0.5540    -1.1150     0.8620 hc         1 OCE       0.020200
     12 HAXA         0.5740    -1.0890    -0.8860 hc         1 OCE       0.020200
     13 HAY         -0.5380     1.1380     0.8830 hc         1 OCE       0.020200
     14 HAYA        -0.5230     1.1630    -0.8650 hc         1 OCE       0.020200
     15 HAZ          2.0220     0.9550    -0.8410 hc         1 OCE       0.032950
     16 HAZA         1.9960     0.9360     0.9050 hc         1 OCE       0.032950
     17 HBA         -1.9600    -0.8880    -0.9070 hc         1 OCE       0.032950
     18 HBAA        -1.9640    -0.9250     0.8380 hc         1 OCE       0.032950
     19 HBN          3.0680    -1.3400     0.8900 hc         1 OCE       0.012700
     20 HBNA         3.0900    -1.3190    -0.8470 hc         1 OCE       0.012700
     21 HBO         -3.0540     1.3500     0.8670 hc         1 OCE       0.012700
     22 HBOA        -3.0690     1.3560    -0.8710 hc         1 OCE       0.012700
     23 O3           5.5070    -0.8010     0.1280 o          1 OCE      -0.860550
     24 O4          -5.4790     0.7640     0.1760 o          1 OCE      -0.860550
@<TRIPOS>BOND
     1     1     9 1   
     2     2    10 1   
     3     3     4 1   
     4     3     5 1   
     5     3    11 1   
     6     3    12 1   
     7     4     6 1   
     8     4    13 1   
     9     4    14 1   
    10     5     7 1   
    11     5    15 1   
    12     5    16 1   
    13     6     8 1   
    14     6    17 1   
    15     6    18 1   
    16     7     9 1   
    17     7    19 1   
    18     7    20 1   
    19     8    10 1   
    20     8    21 1   
    21     8    22 1   
    22     9    23 1   
    23    10    24 1   
@<TRIPOS>SUBSTRUCTURE
     1 OCE         1 TEMP              0 ****  ****    0 ROOT
