@<TRIPOS>MOLECULE
OCE
   24    23     1     0     0
SMALL
No Charge or Current Charge


@<TRIPOS>ATOM
      1 OAO          5.0080     0.3510    -1.0220 o          1 OCE      -0.755250
      2 OAP         -4.9550    -0.2990    -1.1110 o          1 OCE      -0.755250
      3 CAX          0.6140    -0.4790     0.0070 c3         1 OCE      -0.079900
      4 CAY         -0.5780     0.5040     0.0100 c3         1 OCE      -0.079900
      5 CAZ          1.9860     0.2310     0.0270 c3         1 OCE      -0.055900
      6 CBA         -1.9500    -0.2060    -0.0100 c3         1 OCE      -0.055900
      7 CBN          3.1820    -0.7520     0.0250 c3         1 OCE      -0.199900
      8 CBO         -3.1460     0.7770    -0.0070 c3         1 OCE      -0.199900
      9 CCW          4.5120     0.0260     0.0460 c          1 OCE       0.714500
     10 CCX         -4.4760    -0.0010    -0.0280 c          1 OCE       0.714500
     11 HAX          0.5370    -1.1390     0.8810 hc         1 OCE       0.020200
     12 HAXA         0.5510    -1.1170    -0.8830 hc         1 OCE       0.020200
     13 HAY         -0.5150     1.1420     0.9000 hc         1 OCE       0.020200
     14 HAYA        -0.5010     1.1640    -0.8630 hc         1 OCE       0.020200
     15 HAZ          2.0610     0.8920    -0.8450 hc         1 OCE       0.032950
     16 HAZA         2.0470     0.8700     0.9170 hc         1 OCE       0.032950
     17 HBA         -2.0110    -0.8450    -0.9000 hc         1 OCE       0.032950
     18 HBAA        -2.0250    -0.8670     0.8630 hc         1 OCE       0.032950
     19 HBN          3.0760    -1.3560     0.9350 hc         1 OCE       0.012700
     20 HBNA         3.0910    -1.3330    -0.9020 hc         1 OCE       0.012700
     21 HBO         -3.0550     1.3580     0.9190 hc         1 OCE       0.012700
     22 HBOA        -3.0400     1.3800    -0.9180 hc         1 OCE       0.012700
     23 O3           4.9910     0.3230     1.1290 o          1 OCE      -0.755250
     24 O4          -4.9720    -0.3250     1.0400 o          1 OCE      -0.755250
@<TRIPOS>BOND
     1     1     9 1   
     2     2    10 1   
     3     3     4 1   
     4     3     5 1   
     5     3    11 1   
     6     3    12 1   
     7     4     6 1   
     8     4    13 1   
     9     4    14 1   
    10     5     7 1   
    11     5    15 1   
    12     5    16 1   
    13     6     8 1   
    14     6    17 1   
    15     6    18 1   
    16     7     9 1   
    17     7    19 1   
    18     7    20 1   
    19     8    10 1   
    20     8    21 1   
    21     8    22 1   
    22     9    23 1   
    23    10    24 1   
@<TRIPOS>SUBSTRUCTURE
     1 OCE         1 TEMP              0 ****  ****    0 ROOT
