@<TRIPOS>MOLECULE
OCG
   48    51     1     0     0
SMALL
No Charge or Current Charge


@<TRIPOS>ATOM
      1 N1           4.7120     0.1560    -0.0290 na         1 OCG       0.157000
      2 N2           4.5380     1.5130    -0.1720 nc         1 OCG      -0.509800
      3 C3           3.2190     1.6000    -0.1290 cd         1 OCG       0.306900
      4 C4           2.5660     0.3510     0.0420 cd         1 OCG      -0.388600
      5 C5           3.5390    -0.5920     0.1080 cc         1 OCG       0.357000
      6 N6           3.4650    -1.9490     0.2430 nv         1 OCG      -1.086000
      7 C7           1.1190     0.0880     0.1360 c          1 OCG       0.675700
      8 O8           0.6520    -1.0330     0.3020 o          1 OCG      -0.629100
      9 N9           0.3620     1.2460     0.0300 ns         1 OCG      -0.158000
     10 C10         -1.0440     1.4870     0.0400 ca         1 OCG      -0.032000
     11 C11         -1.4910     2.8270     0.1030 ca         1 OCG      -0.085300
     12 C12         -2.8710     3.1000     0.1100 ca         1 OCG      -0.103000
     13 C13         -3.8100     2.0610     0.0490 ca         1 OCG      -0.097000
     14 C14         -3.3860     0.7130    -0.0230 ca         1 OCG      -0.144600
     15 C15         -1.9970     0.4450    -0.0290 ca         1 OCG      -0.052000
     16 C16         -4.3660    -0.4460    -0.0980 c          1 OCG       0.632700
     17 O17         -3.9800    -1.6040    -0.1670 o          1 OCG      -0.564100
     18 N18         -5.7010    -0.1140    -0.0860 ns         1 OCG      -0.478400
     19 C19         -6.8090    -0.9250    -0.1420 cc         1 OCG       0.403900
     20 N20         -8.0100    -0.3820    -0.1150 nd         1 OCG      -0.439300
     21 O21         -8.9020    -1.5130    -0.1900 os         1 OCG      -0.060700
     22 C22         -8.1470    -2.6550    -0.2560 cd         1 OCG       0.168900
     23 C23         -6.8330    -2.3270    -0.2290 cc         1 OCG      -0.234000
     24 C24         -0.5020     3.9890     0.1700 c3         1 OCG      -0.051800
     25 C25          6.0020    -0.3790     0.0230 ca         1 OCG       0.012800
     26 C26          6.8550    -0.2830    -1.0950 ca         1 OCG      -0.107500
     27 C27          8.1540    -0.8190    -1.0450 ca         1 OCG      -0.099000
     28 C28          8.6090    -1.4510     0.1250 ca         1 OCG      -0.105000
     29 C29          7.7670    -1.5440     1.2460 ca         1 OCG      -0.099000
     30 C30          6.4670    -1.0090     1.1960 ca         1 OCG      -0.107500
     31 H3           2.7650     2.5790    -0.2210 h4         1 OCG       0.033100
     32 HN6          4.3040    -2.4970     0.4230 hn         1 OCG       0.504000
     33 HN6A         2.5580    -2.3720     0.4460 hn         1 OCG       0.504000
     34 HN9          0.9130     2.0860    -0.0770 hn         1 OCG       0.154000
     35 H12         -3.2220     4.1280     0.1620 ha         1 OCG       0.117000
     36 H13         -4.8640     2.3280     0.0570 ha         1 OCG       0.116000
     37 H15         -1.6720    -0.5880    -0.0980 ha         1 OCG       0.156000
     38 HN18        -5.8850     0.8750    -0.0260 hn         1 OCG       0.341500
     39 H22         -8.6570    -3.6080    -0.3180 h4         1 OCG       0.057100
     40 H23         -5.9910    -3.0040    -0.2660 ha         1 OCG       0.178000
     41 H24          0.1320     4.0200    -0.7240 hc         1 OCG       0.046367
     42 H24A        -1.0130     4.9560     0.2410 hc         1 OCG       0.046367
     43 H24B         0.1520     3.9020     1.0470 hc         1 OCG       0.046367
     44 H26          6.5080     0.2060    -2.0030 ha         1 OCG       0.129000
     45 H27          8.8070    -0.7440    -1.9120 ha         1 OCG       0.121000
     46 H28          9.6150    -1.8650     0.1630 ha         1 OCG       0.120000
     47 H29          8.1210    -2.0290     2.1530 ha         1 OCG       0.121000
     48 H30          5.8240    -1.0780     2.0710 ha         1 OCG       0.129000
@<TRIPOS>BOND
     1     1     2 1   
     2     1     5 1   
     3     1    25 1   
     4     2     3 2   
     5     3     4 1   
     6     3    31 1   
     7     4     5 2   
     8     4     7 1   
     9     5     6 1   
    10     6    32 1   
    11     6    33 1   
    12     7     8 2   
    13     7     9 1   
    14     9    10 1   
    15     9    34 1   
    16    10    11 ar  
    17    10    15 ar  
    18    11    12 ar  
    19    11    24 1   
    20    12    13 ar  
    21    12    35 1   
    22    13    14 ar  
    23    13    36 1   
    24    14    15 ar  
    25    14    16 1   
    26    15    37 1   
    27    16    17 2   
    28    16    18 1   
    29    18    19 1   
    30    18    38 1   
    31    19    20 2   
    32    19    23 1   
    33    20    21 1   
    34    21    22 1   
    35    22    23 2   
    36    22    39 1   
    37    23    40 1   
    38    24    41 1   
    39    24    42 1   
    40    24    43 1   
    41    25    26 ar  
    42    25    30 ar  
    43    26    27 ar  
    44    26    44 1   
    45    27    28 ar  
    46    27    45 1   
    47    28    29 ar  
    48    28    46 1   
    49    29    30 ar  
    50    29    47 1   
    51    30    48 1   
@<TRIPOS>SUBSTRUCTURE
     1 OCG         1 TEMP              0 ****  ****    0 ROOT
