@<TRIPOS>MOLECULE
OCG
   48    51     1     0     0
SMALL
abcg2


@<TRIPOS>ATOM
      1 N1           4.6160     0.0780    -0.1810 na         1 OCG       0.157000
      2 N2           4.5270     1.2580    -0.8520 nc         1 OCG      -0.509800
      3 C3           3.2640     1.5750    -0.8180 cd         1 OCG       0.306900
      4 C4           2.4860     0.6120    -0.1310 cd         1 OCG      -0.388600
      5 C5           3.4160    -0.3590     0.2580 cc         1 OCG       0.357000
      6 N6           3.2240    -1.5450     0.8610 nv         1 OCG      -1.086000
      7 C7           1.0650     0.5420     0.1470 c          1 OCG       0.675700
      8 O8           0.5650    -0.3990     0.7550 o          1 OCG      -0.629100
      9 N9           0.3190     1.5920    -0.3060 ns         1 OCG      -0.158000
     10 C10         -1.0620     1.7480    -0.1130 ca         1 OCG      -0.032000
     11 C11         -1.5470     3.0010     0.2880 ca         1 OCG      -0.085300
     12 C12         -2.9200     3.1530     0.4470 ca         1 OCG      -0.103000
     13 C13         -3.7970     2.1010     0.2430 ca         1 OCG      -0.097000
     14 C14         -3.3060     0.8610    -0.1540 ca         1 OCG      -0.144600
     15 C15         -1.9380     0.6980    -0.3490 ca         1 OCG      -0.052000
     16 C16         -4.1820    -0.3070    -0.4470 c          1 OCG       0.632700
     17 O17         -3.8320    -1.2060    -1.1860 o          1 OCG      -0.564100
     18 N18         -5.3950    -0.3000     0.1770 ns         1 OCG      -0.478400
     19 C19         -6.3870    -1.2420     0.0200 cc         1 OCG       0.403900
     20 N20         -7.4710    -1.1170     0.7380 nd         1 OCG      -0.439300
     21 O21         -8.2760    -2.1550     0.3840 os         1 OCG      -0.060700
     22 C22         -7.6690    -2.8900    -0.5420 cd         1 OCG       0.168900
     23 C23         -6.4540    -2.3780    -0.8330 cc         1 OCG      -0.234000
     24 C24         -0.6140     4.1460     0.5380 c3         1 OCG      -0.051800
     25 C25          5.8670    -0.5640    -0.0470 ca         1 OCG       0.012800
     26 C26          6.6140    -0.8470    -1.1850 ca         1 OCG      -0.107500
     27 C27          7.8440    -1.4710    -1.0540 ca         1 OCG      -0.099000
     28 C28          8.3210    -1.8260     0.2020 ca         1 OCG      -0.105000
     29 C29          7.5690    -1.5400     1.3330 ca         1 OCG      -0.099000
     30 C30          6.3450    -0.8980     1.2140 ca         1 OCG      -0.107500
     31 H3           2.9380     2.4910    -1.2890 h4         1 OCG       0.033100
     32 HN6          4.0000    -2.0460     1.2580 hn         1 OCG       0.504000
     33 HN6A         2.3310    -1.6800     1.3050 hn         1 OCG       0.504000
     34 HN9          0.8060     2.3780    -0.7060 hn         1 OCG       0.154000
     35 H12         -3.3110     4.1170     0.7460 ha         1 OCG       0.117000
     36 H13         -4.8570     2.2810     0.3690 ha         1 OCG       0.116000
     37 H15         -1.5610    -0.2520    -0.6970 ha         1 OCG       0.156000
     38 HN18        -5.5880     0.4160     0.8620 hn         1 OCG       0.341500
     39 H22         -8.2040    -3.7510    -0.9120 h4         1 OCG       0.057100
     40 H23         -5.7320    -2.7500    -1.5340 ha         1 OCG       0.178000
     41 H24         -0.1190     4.4750    -0.3790 hc         1 OCG       0.046367
     42 H24A        -1.1500     5.0040     0.9390 hc         1 OCG       0.046367
     43 H24B         0.1690     3.8770     1.2500 hc         1 OCG       0.046367
     44 H26          6.2320    -0.5810    -2.1620 ha         1 OCG       0.129000
     45 H27          8.4280    -1.6890    -1.9380 ha         1 OCG       0.121000
     46 H28          9.2780    -2.3220     0.2990 ha         1 OCG       0.120000
     47 H29          7.9410    -1.8010     2.3150 ha         1 OCG       0.121000
     48 H30          5.7770    -0.6420     2.1010 ha         1 OCG       0.129000
@<TRIPOS>BOND
     1     1     2 1   
     2     1     5 1   
     3     1    25 1   
     4     2     3 2   
     5     3     4 1   
     6     3    31 1   
     7     4     5 2   
     8     4     7 1   
     9     5     6 1   
    10     6    32 1   
    11     6    33 1   
    12     7     8 2   
    13     7     9 1   
    14     9    10 1   
    15     9    34 1   
    16    10    11 ar  
    17    10    15 ar  
    18    11    12 ar  
    19    11    24 1   
    20    12    13 ar  
    21    12    35 1   
    22    13    14 ar  
    23    13    36 1   
    24    14    15 ar  
    25    14    16 1   
    26    15    37 1   
    27    16    17 2   
    28    16    18 1   
    29    18    19 1   
    30    18    38 1   
    31    19    20 2   
    32    19    23 1   
    33    20    21 1   
    34    21    22 1   
    35    22    23 2   
    36    22    39 1   
    37    23    40 1   
    38    24    41 1   
    39    24    42 1   
    40    24    43 1   
    41    25    26 ar  
    42    25    30 ar  
    43    26    27 ar  
    44    26    44 1   
    45    27    28 ar  
    46    27    45 1   
    47    28    29 ar  
    48    28    46 1   
    49    29    30 ar  
    50    29    47 1   
    51    30    48 1   
@<TRIPOS>SUBSTRUCTURE
     1 OCG         1 TEMP              0 ****  ****    0 ROOT
