@<TRIPOS>MOLECULE
OCH
   18    19     1     0     0
SMALL
No Charge or Current Charge


@<TRIPOS>ATOM
      1 O1          -3.2770     0.7680    -0.0520 o          1 OCH      -0.551000
      2 N2          -1.0270     1.0650    -0.0450 ns         1 OCH      -0.375100
      3 C3           0.2980     0.6100    -0.0370 ca         1 OCH       0.102600
      4 C4           1.3730     1.5130    -0.0390 ca         1 OCH      -0.168000
      5 C5           2.6920     1.0290    -0.0300 ca         1 OCH      -0.056000
      6 C6           2.9290    -0.3560    -0.0190 ca         1 OCH      -0.148000
      7 C7           1.8500    -1.2590    -0.0160 ca         1 OCH      -0.049000
      8 C8           0.5270    -0.7790    -0.0250 ca         1 OCH      -0.137800
      9 C9          -0.6030    -1.7120    -0.0230 cc         1 OCH      -0.083200
     10 C10         -1.8760    -1.1630    -0.0320 cd         1 OCH      -0.293200
     11 C1          -2.1550     0.2900    -0.0440 c          1 OCH       0.561200
     12 HN2         -1.1740     2.0660    -0.0530 hn         1 OCH       0.326500
     13 H4           1.1900     2.5850    -0.0470 ha         1 OCH       0.121000
     14 H5           3.5290     1.7250    -0.0320 ha         1 OCH       0.117000
     15 H6           3.9500    -0.7320    -0.0120 ha         1 OCH       0.120000
     16 H7           2.0440    -2.3300    -0.0080 ha         1 OCH       0.117000
     17 H9          -0.4630    -2.7910    -0.0140 ha         1 OCH       0.187000
     18 H10         -2.7630    -1.7860    -0.0310 ha         1 OCH       0.209000
@<TRIPOS>BOND
     1     1    11 2   
     2     2     3 1   
     3     2    11 1   
     4     2    12 1   
     5     3     4 ar  
     6     3     8 ar  
     7     4     5 ar  
     8     4    13 1   
     9     5     6 ar  
    10     5    14 1   
    11     6     7 ar  
    12     6    15 1   
    13     7     8 ar  
    14     7    16 1   
    15     8     9 1   
    16     9    10 2   
    17     9    17 1   
    18    10    11 1   
    19    10    18 1   
@<TRIPOS>SUBSTRUCTURE
     1 OCH         1 TEMP              0 ****  ****    0 ROOT
