@<TRIPOS>MOLECULE
OCH
   18    19     1     0     0
SMALL
bcc


@<TRIPOS>ATOM
      1 O1          -3.2460     0.7680    -0.0510 o          1 OCH      -0.626500
      2 N2          -1.0020     1.0550    -0.0460 ns         1 OCH      -0.442100
      3 C3           0.2930     0.6030    -0.0370 ca         1 OCH       0.102600
      4 C4           1.3670     1.4980    -0.0390 ca         1 OCH      -0.186000
      5 C5           2.6570     1.0100    -0.0300 ca         1 OCH      -0.074000
      6 C6           2.9070    -0.3660    -0.0190 ca         1 OCH      -0.166000
      7 C7           1.8490    -1.2490    -0.0160 ca         1 OCH      -0.067000
      8 C8           0.5290    -0.7800    -0.0260 ca         1 OCH      -0.137800
      9 C9          -0.6110    -1.6480    -0.0240 cc         1 OCH      -0.033200
     10 C10         -1.8660    -1.1590    -0.0320 cd         1 OCH      -0.243200
     11 C1          -2.1270     0.2710    -0.0440 c          1 OCH       0.703700
     12 HN2         -1.1520     2.0560    -0.0530 hn         1 OCH       0.326500
     13 H4           1.1840     2.5650    -0.0480 ha         1 OCH       0.139000
     14 H5           3.4840     1.7070    -0.0300 ha         1 OCH       0.135000
     15 H6           3.9250    -0.7320    -0.0120 ha         1 OCH       0.138000
     16 H7           2.0220    -2.3180    -0.0070 ha         1 OCH       0.135000
     17 H9          -0.4460    -2.7190    -0.0150 ha         1 OCH       0.137000
     18 H10         -2.7230    -1.8180    -0.0310 ha         1 OCH       0.159000
@<TRIPOS>BOND
     1     1    11 2   
     2     2     3 1   
     3     2    11 1   
     4     2    12 1   
     5     3     4 ar  
     6     3     8 ar  
     7     4     5 ar  
     8     4    13 1   
     9     5     6 ar  
    10     5    14 1   
    11     6     7 ar  
    12     6    15 1   
    13     7     8 ar  
    14     7    16 1   
    15     8     9 1   
    16     9    10 2   
    17     9    17 1   
    18    10    11 1   
    19    10    18 1   
@<TRIPOS>SUBSTRUCTURE
     1 OCH         1 TEMP              0 ****  ****    0 ROOT
