@<TRIPOS>MOLECULE
OCI
   38    39     1     0     0
SMALL
No Charge or Current Charge


@<TRIPOS>ATOM
      1 N1           7.6270    -0.4400    21.0970 ns         1 OCI      -0.157000
      2 N3          11.2850     5.0930    23.3930 n8         1 OCI      -1.049100
      3 C4           6.7220    -0.5950    18.7750 ca         1 OCI       0.333900
      4 C5           6.7860     0.0310    20.0460 ca         1 OCI      -0.083000
      5 C6           8.6820    -1.3430    21.1030 c          1 OCI       0.602100
      6 C7           9.3150    -1.5640    22.4810 c3         1 OCI      -0.111100
      7 C8          10.5410    -0.6720    22.6460 ca         1 OCI      -0.030300
      8 C10         12.9350    -0.2990    22.4060 ca         1 OCI       0.154000
      9 C13         10.4080     0.6250    23.1790 ca         1 OCI      -0.135000
     10 O2           9.3910     4.0350    24.5470 o          1 OCI      -0.562000
     11 S           10.3030     3.8380    23.4320 s6         1 OCI       1.317200
     12 O1           9.8630     3.5890    22.0680 o          1 OCI      -0.562000
     13 C12         11.5300     1.4650    23.3140 ca         1 OCI       0.327000
     14 C11         12.7950     0.9930    22.9360 ca         1 OCI      -0.144000
     15 Cl          14.5230    -0.8790    21.9250 cl         1 OCI      -0.203000
     16 C9          11.8130    -1.1290    22.2560 ca         1 OCI      -0.103000
     17 O            9.1140    -1.8950    20.0980 o          1 OCI      -0.566100
     18 C1           5.9670     1.1580    20.2790 ca         1 OCI      -0.079300
     19 C            5.9730     1.8950    21.6150 c3         1 OCI      -0.052800
     20 N            5.9220    -0.1630    17.7710 nb         1 OCI      -0.647000
     21 C3           5.1490     0.9200    18.0030 ca         1 OCI       0.317900
     22 C2           5.1400     1.6020    19.2300 ca         1 OCI      -0.146000
     23 H1           7.4190    -0.0380    22.0020 hn         1 OCI       0.153000
     24 H2          10.9720     5.5270    22.5280 hn         1 OCI       0.485000
     25 H3          10.8220     5.6830    24.0820 hn         1 OCI       0.485000
     26 H4           7.3100    -1.4800    18.5420 h4         1 OCI       0.042100
     27 H5           8.5900    -1.3160    23.2650 hc         1 OCI       0.071200
     28 H6           9.6080    -2.6160    22.5720 hc         1 OCI       0.071200
     29 H7           9.4310     0.9810    23.4920 ha         1 OCI       0.138000
     30 H8          12.2310     3.3290    23.7620 hn         1 OCI       0.511000
     31 H9          13.6710     1.6240    23.0480 ha         1 OCI       0.132000
     32 H10         11.9360    -2.1250    21.8390 ha         1 OCI       0.136000
     33 H11          5.6430     1.2380    22.4290 hc         1 OCI       0.048033
     34 H12          6.9770     2.2600    21.8600 hc         1 OCI       0.048033
     35 H13          5.3030     2.7630    21.6030 hc         1 OCI       0.048033
     36 H14          4.5150     1.2500    17.1810 h4         1 OCI       0.022100
     37 H15          4.4950     2.4670    19.3550 ha         1 OCI       0.122000
     38 N2          11.4140     2.7410    23.8430 nu         1 OCI      -0.932100
@<TRIPOS>BOND
     1     1     4 1   
     2     1     5 1   
     3     1    23 1   
     4     2    11 1   
     5     2    24 1   
     6     2    25 1   
     7     3     4 ar  
     8     3    20 ar  
     9     3    26 1   
    10     4    18 ar  
    11     5     6 1   
    12     5    17 2   
    13     6     7 1   
    14     6    27 1   
    15     6    28 1   
    16     7     9 ar  
    17     7    16 ar  
    18     8    14 ar  
    19     8    15 1   
    20     8    16 ar  
    21     9    13 ar  
    22     9    29 1   
    23    10    11 2   
    24    11    12 2   
    25    11    38 1   
    26    13    14 ar  
    27    13    38 1   
    28    14    31 1   
    29    16    32 1   
    30    18    19 1   
    31    18    22 ar  
    32    19    33 1   
    33    19    34 1   
    34    19    35 1   
    35    20    21 ar  
    36    21    22 ar  
    37    21    36 1   
    38    22    37 1   
    39    30    38 1   
@<TRIPOS>SUBSTRUCTURE
     1 OCI         1 TEMP              0 ****  ****    0 ROOT
