@<TRIPOS>MOLECULE
OCI
   38    39     1     0     0
SMALL
abcg2


@<TRIPOS>ATOM
      1 N1           7.4310    -0.2810    20.9360 ns         1 OCI      -0.157000
      2 N3          10.6120     4.2370    22.6710 n8         1 OCI      -1.049100
      3 C4           6.9830    -0.2610    18.5300 ca         1 OCI       0.333900
      4 C5           6.6450     0.1050    19.8330 ca         1 OCI      -0.083000
      5 C6           8.7890    -0.3970    20.9780 c          1 OCI       0.602100
      6 C7           9.3230    -0.8880    22.3200 c3         1 OCI      -0.111100
      7 C8          10.6630    -0.2960    22.6660 ca         1 OCI      -0.030300
      8 C10         13.0510    -0.4130    22.7050 ca         1 OCI       0.154000
      9 C13         10.7240     0.9600    23.2660 ca         1 OCI      -0.135000
     10 O2          11.6560     5.0800    24.8650 o          1 OCI      -0.562000
     11 S           10.9640     3.9780    24.2470 s6         1 OCI       1.317200
     12 O1           9.7450     3.4970    24.8400 o          1 OCI      -0.562000
     13 C12         11.9580     1.5280    23.5770 ca         1 OCI       0.327000
     14 C11         13.1380     0.8370    23.2920 ca         1 OCI      -0.144000
     15 CL          14.5300    -1.2840    22.3550 cl         1 OCI      -0.203000
     16 C9          11.8330    -0.9940    22.3820 ca         1 OCI      -0.103000
     17 O            9.5180    -0.1620    20.0250 o          1 OCI      -0.566100
     18 C1           5.4780     0.8520    20.0520 ca         1 OCI      -0.079300
     19 C            5.0600     1.2740    21.4290 c3         1 OCI      -0.052800
     20 N            6.2560     0.0750    17.4630 nb         1 OCI      -0.647000
     21 C3           5.1460     0.7890    17.6690 ca         1 OCI       0.317900
     22 C2           4.7270     1.1850    18.9300 ca         1 OCI      -0.146000
     23 H1           6.9450    -0.4100    21.8110 hn         1 OCI       0.153000
     24 H2           9.6880     4.6390    22.5490 hn         1 OCI       0.485000
     25 H3          11.3300     4.7610    22.1810 hn         1 OCI       0.485000
     26 H4           7.8740    -0.8460    18.3520 h4         1 OCI       0.042100
     27 H5           8.6000    -0.6760    23.1100 hc         1 OCI       0.071200
     28 H6           9.4020    -1.9750    22.2380 hc         1 OCI       0.071200
     29 H7           9.8090     1.4830    23.4990 ha         1 OCI       0.138000
     30 H8          13.0210     3.1230    24.3680 hn         1 OCI       0.511000
     31 H9          14.1000     1.2690    23.5320 ha         1 OCI       0.132000
     32 H10         11.7960    -1.9720    21.9240 ha         1 OCI       0.136000
     33 H11          4.8010     0.4100    22.0470 hc         1 OCI       0.048033
     34 H12          5.8680     1.8050    21.9380 hc         1 OCI       0.048033
     35 H13          4.1890     1.9260    21.3820 hc         1 OCI       0.048033
     36 H14          4.5660     1.0520    16.7910 h4         1 OCI       0.022100
     37 H15          3.8170     1.7620    19.0420 ha         1 OCI       0.122000
     38 N2          12.0830     2.7810    24.2070 nu         1 OCI      -0.932100
@<TRIPOS>BOND
     1     1     4 1   
     2     1     5 1   
     3     1    23 1   
     4     2    11 1   
     5     2    24 1   
     6     2    25 1   
     7     3     4 ar  
     8     3    20 ar  
     9     3    26 1   
    10     4    18 ar  
    11     5     6 1   
    12     5    17 2   
    13     6     7 1   
    14     6    27 1   
    15     6    28 1   
    16     7     9 ar  
    17     7    16 ar  
    18     8    14 ar  
    19     8    15 1   
    20     8    16 ar  
    21     9    13 ar  
    22     9    29 1   
    23    10    11 2   
    24    11    12 2   
    25    11    38 1   
    26    13    14 ar  
    27    13    38 1   
    28    14    31 1   
    29    16    32 1   
    30    18    19 1   
    31    18    22 ar  
    32    19    33 1   
    33    19    34 1   
    34    19    35 1   
    35    20    21 ar  
    36    21    22 ar  
    37    21    36 1   
    38    22    37 1   
    39    30    38 1   
@<TRIPOS>SUBSTRUCTURE
     1 OCI         1 TEMP              0 ****  ****    0 ROOT
