@<TRIPOS>MOLECULE
OCJ
   45    48     1     0     0
SMALL
abcg2


@<TRIPOS>ATOM
      1 N1          -2.9840    -1.1850    -0.8860 ns         1 OCJ      -0.500900
      2 C1          -2.3490    -2.3360    -1.1620 c          1 OCJ       0.640700
      3 O1          -2.9140    -3.3100    -1.6430 o          1 OCJ      -0.601100
      4 C2          -0.9050    -2.3970    -0.8470 cc         1 OCJ      -0.288600
      5 S1          -0.0410    -1.1830     0.0180 ss         1 OCJ       0.240000
      6 C3           1.4420    -2.0510    -0.1080 cc         1 OCJ      -0.155000
      7 C4           1.2560    -3.2330    -0.7720 cd         1 OCJ      -0.134000
      8 C5          -0.0780    -3.4290    -1.1920 cd         1 OCJ      -0.067000
      9 C6           2.6720    -1.5650     0.5170 ca         1 OCJ       0.031000
     10 C7           3.4140    -2.4280     1.3080 ca         1 OCJ      -0.098000
     11 C8           4.5950    -2.0170     1.9330 ca         1 OCJ      -0.092000
     12 C9           5.0630    -0.7270     1.7900 ca         1 OCJ      -0.081000
     13 C10          4.3290     0.1440     0.9890 ca         1 OCJ      -0.147000
     14 C11          3.1430    -0.2470     0.3400 ca         1 OCJ      -0.076800
     15 S2           4.7310     1.7890     0.6450 ss         1 OCJ       0.058400
     16 C12          3.3430     1.9510    -0.3880 cc         1 OCJ      -0.137600
     17 C13          2.6060     0.8150    -0.4510 cd         1 OCJ      -0.101200
     18 C14          3.0070     3.1950    -1.1260 c          1 OCJ       0.643300
     19 O2           1.9340     3.2920    -1.7020 o          1 OCJ      -0.595100
     20 C15         -4.3930    -0.9920    -1.1760 c3         1 OCJ       0.149300
     21 C16         -4.9060     0.2170    -0.4420 ca         1 OCJ      -0.077300
     22 N2           3.9270     4.1700    -1.1120 nt         1 OCJ      -0.604000
     23 C17         -5.1170     0.1460     0.9310 ca         1 OCJ      -0.162000
     24 C18         -5.5710     1.2550     1.6510 ca         1 OCJ       0.287000
     25 C19         -5.8010     2.4500     0.9540 ca         1 OCJ      -0.169000
     26 C20         -5.5870     2.5170    -0.4110 ca         1 OCJ      -0.073000
     27 C21         -5.1380     1.4080    -1.1200 ca         1 OCJ      -0.141000
     28 N3          -5.7430     1.1910     3.0170 nv         1 OCJ      -1.073000
     29 H1          -2.4610    -0.3640    -0.6270 hn         1 OCJ       0.321500
     30 H4           2.0580    -3.9320    -0.9620 ha         1 OCJ       0.140000
     31 H6          -0.4150    -4.2970    -1.7400 ha         1 OCJ       0.155000
     32 H8           3.0600    -3.4390     1.4640 ha         1 OCJ       0.123000
     33 H9           5.1410    -2.7180     2.5490 ha         1 OCJ       0.119000
     34 H10          5.9720    -0.4050     2.2800 ha         1 OCJ       0.125000
     35 H11          1.7220     0.7350    -1.0660 ha         1 OCJ       0.229000
     36 H12         -4.5530    -0.8730    -2.2520 h1         1 OCJ       0.058700
     37 H13         -4.9390    -1.8840    -0.8660 h1         1 OCJ       0.058700
     38 H14          4.8500     4.0630    -0.7260 hn         1 OCJ       0.317500
     39 H15          3.7510     5.0210    -1.6220 hn         1 OCJ       0.317500
     40 H16         -4.9350    -0.7880     1.4520 ha         1 OCJ       0.117000
     41 H17         -6.1530     3.3240     1.4890 ha         1 OCJ       0.112000
     42 H18         -5.7770     3.4480    -0.9310 ha         1 OCJ       0.113000
     43 H19         -4.9780     1.4680    -2.1890 ha         1 OCJ       0.117000
     44 H20         -5.9050     0.2710     3.3940 hn         1 OCJ       0.448500
     45 H21         -6.3750     1.8710     3.4090 hn         1 OCJ       0.448500
@<TRIPOS>BOND
     1     1     2 1   
     2     1    20 1   
     3     1    29 1   
     4     2     3 2   
     5     2     4 1   
     6     4     5 1   
     7     4     8 2   
     8     5     6 1   
     9     6     7 2   
    10     6     9 1   
    11     7     8 1   
    12     7    30 1   
    13     8    31 1   
    14     9    10 ar  
    15     9    14 ar  
    16    10    11 ar  
    17    10    32 1   
    18    11    12 ar  
    19    11    33 1   
    20    12    13 ar  
    21    12    34 1   
    22    13    14 ar  
    23    13    15 1   
    24    14    17 1   
    25    15    16 1   
    26    16    17 2   
    27    16    18 1   
    28    17    35 1   
    29    18    19 2   
    30    18    22 1   
    31    20    21 1   
    32    20    36 1   
    33    20    37 1   
    34    21    23 ar  
    35    21    27 ar  
    36    22    38 1   
    37    22    39 1   
    38    23    24 ar  
    39    23    40 1   
    40    24    25 ar  
    41    24    28 1   
    42    25    26 ar  
    43    25    41 1   
    44    26    27 ar  
    45    26    42 1   
    46    27    43 1   
    47    28    44 1   
    48    28    45 1   
@<TRIPOS>SUBSTRUCTURE
     1 OCJ         1 TEMP              0 ****  ****    0 ROOT
