@<TRIPOS>MOLECULE
OCJ
   45    48     1     0     0
SMALL
No Charge or Current Charge


@<TRIPOS>ATOM
      1 N1          -3.0350    -1.3440    -0.7690 ns         1 OCJ      -0.500900
      2 C1          -2.3280    -2.4140    -1.2570 c          1 OCJ       0.640700
      3 O1          -2.8550    -3.2940    -1.9220 o          1 OCJ      -0.601100
      4 C2          -0.8960    -2.3980    -0.9050 cc         1 OCJ      -0.288600
      5 S1          -0.1190    -1.1380     0.0540 ss         1 OCJ       0.240000
      6 C3           1.4280    -1.9610    -0.1110 cc         1 OCJ      -0.155000
      7 C4           1.3250    -3.1270    -0.8270 cd         1 OCJ      -0.134000
      8 C5           0.0020    -3.3720    -1.2860 cd         1 OCJ      -0.067000
      9 C6           2.6960    -1.5500     0.4870 ca         1 OCJ       0.031000
     10 C7           3.4310    -2.4580     1.2810 ca         1 OCJ      -0.098000
     11 C8           4.6470    -2.0680     1.8830 ca         1 OCJ      -0.092000
     12 C9           5.1440    -0.7640     1.6970 ca         1 OCJ      -0.081000
     13 C10          4.4120     0.1290     0.9010 ca         1 OCJ      -0.147000
     14 C11          3.2220    -0.2540     0.3090 ca         1 OCJ      -0.076800
     15 S2           4.8940     1.8150     0.5500 ss         1 OCJ       0.058400
     16 C12          3.4410     1.9880    -0.4730 cc         1 OCJ      -0.137600
     17 C13          2.6850     0.8290    -0.4860 cd         1 OCJ      -0.101200
     18 C14          3.0980     3.2080    -1.2340 c          1 OCJ       0.643300
     19 O2           2.1100     3.3200    -1.9410 o          1 OCJ      -0.595100
     20 C15         -4.4640    -1.1350    -0.9840 c3         1 OCJ       0.149300
     21 C16         -4.9360     0.1430    -0.3070 ca         1 OCJ      -0.077300
     22 N2           3.9570     4.2420    -1.1130 nt         1 OCJ      -0.604000
     23 C17         -5.4250     0.1100     1.0140 ca         1 OCJ      -0.162000
     24 C18         -5.8550     1.2890     1.6420 ca         1 OCJ       0.287000
     25 C19         -5.7950     2.5100     0.9540 ca         1 OCJ      -0.169000
     26 C20         -5.3050     2.5540    -0.3630 ca         1 OCJ      -0.073000
     27 C21         -4.8760     1.3720    -0.9910 ca         1 OCJ      -0.141000
     28 N3          -6.3310     1.2490     2.9250 nv         1 OCJ      -1.073000
     29 H1          -2.5270    -0.6600    -0.2270 hn         1 OCJ       0.321500
     30 H4           2.1620    -3.7900    -1.0290 ha         1 OCJ       0.140000
     31 H6          -0.2710    -4.2430    -1.8780 ha         1 OCJ       0.155000
     32 H8           3.0540    -3.4640     1.4420 ha         1 OCJ       0.123000
     33 H9           5.2000    -2.7760     2.4960 ha         1 OCJ       0.119000
     34 H10          6.0790    -0.4570     2.1600 ha         1 OCJ       0.125000
     35 H11          1.7790     0.7420    -1.0790 ha         1 OCJ       0.229000
     36 H12         -4.6590    -1.0790    -2.0630 h1         1 OCJ       0.058700
     37 H13         -5.0160    -1.9960    -0.5840 h1         1 OCJ       0.058700
     38 H14          4.7750     4.1530    -0.5290 hn         1 OCJ       0.317500
     39 H15          3.7700     5.0980    -1.6110 hn         1 OCJ       0.317500
     40 H16         -5.4680    -0.8340     1.5500 ha         1 OCJ       0.117000
     41 H17         -6.1250     3.4260     1.4360 ha         1 OCJ       0.112000
     42 H18         -5.2580     3.5020    -0.8950 ha         1 OCJ       0.113000
     43 H19         -4.4960     1.4130    -2.0090 ha         1 OCJ       0.117000
     44 H20         -6.5070     0.3520     3.3740 hn         1 OCJ       0.448500
     45 H21         -6.7710     2.0740     3.3300 hn         1 OCJ       0.448500
@<TRIPOS>BOND
     1     1     2 1   
     2     1    20 1   
     3     1    29 1   
     4     2     3 2   
     5     2     4 1   
     6     4     5 1   
     7     4     8 2   
     8     5     6 1   
     9     6     7 2   
    10     6     9 1   
    11     7     8 1   
    12     7    30 1   
    13     8    31 1   
    14     9    10 ar  
    15     9    14 ar  
    16    10    11 ar  
    17    10    32 1   
    18    11    12 ar  
    19    11    33 1   
    20    12    13 ar  
    21    12    34 1   
    22    13    14 ar  
    23    13    15 1   
    24    14    17 1   
    25    15    16 1   
    26    16    17 2   
    27    16    18 1   
    28    17    35 1   
    29    18    19 2   
    30    18    22 1   
    31    20    21 1   
    32    20    36 1   
    33    20    37 1   
    34    21    23 ar  
    35    21    27 ar  
    36    22    38 1   
    37    22    39 1   
    38    23    24 ar  
    39    23    40 1   
    40    24    25 ar  
    41    24    28 1   
    42    25    26 ar  
    43    25    41 1   
    44    26    27 ar  
    45    26    42 1   
    46    27    43 1   
    47    28    44 1   
    48    28    45 1   
@<TRIPOS>SUBSTRUCTURE
     1 OCJ         1 TEMP              0 ****  ****    0 ROOT
