@<TRIPOS>MOLECULE
OCK
   39    40     1     0     0
SMALL
No Charge or Current Charge


@<TRIPOS>ATOM
      1 C1          36.2540     6.5480   140.8310 ca         1 OCK      -0.172600
      2 C2          36.2050     6.1810   142.1980 ca         1 OCK      -0.037000
      3 C3          35.4600     5.0700   142.6240 ca         1 OCK      -0.142000
      4 C4          34.7720     4.2890   141.6880 ca         1 OCK      -0.063000
      5 C5          34.8280     4.6300   140.3290 ca         1 OCK      -0.168000
      6 C6          35.5520     5.7560   139.8970 ca         1 OCK       0.010000
      7 C11         34.5120    10.1310   140.4650 c3         1 OCK      -0.071400
      8 C7          35.2580     7.1940   137.8610 c          1 OCK       0.560000
      9 C8          35.5500     8.5600   138.5920 c3         1 OCK       0.078400
     10 C9          35.4970     9.6690   137.4760 c3         1 OCK      -0.093100
     11 C10         34.3610     8.8710   139.5730 c3         1 OCK      -0.089400
     12 C12         33.3180    10.3320   141.4180 c3         1 OCK      -0.092100
     13 N1          36.8830     8.5490   139.3390 n          1 OCK      -0.405800
     14 C13         37.9830     9.4820   138.9260 c3         1 OCK       0.102000
     15 C14         37.9760    10.8380   139.6630 c3         1 OCK      -0.111100
     16 C           37.1590     7.6940   140.4470 c          1 OCK       0.579600
     17 O           38.1780     7.8620   141.1060 o          1 OCK      -0.560000
     18 N           35.5500     6.0220   138.5190 ns         1 OCK      -0.148000
     19 H1          36.7490     6.7630   142.9400 ha         1 OCK       0.135000
     20 H2          35.4290     4.8090   143.6790 ha         1 OCK       0.122000
     21 H3          34.2020     3.4210   142.0120 ha         1 OCK       0.118000
     22 H4          34.2930     4.0160   139.6060 ha         1 OCK       0.119000
     23 H5          35.4250    10.0540   141.0660 hc         1 OCK       0.045200
     24 H6          34.6090    11.0270   139.8400 hc         1 OCK       0.045200
     25 H7          35.7110    10.6700   137.8610 hc         1 OCK       0.054367
     26 H8          36.2020     9.4580   136.6630 hc         1 OCK       0.054367
     27 H9          34.5000     9.7190   137.0220 hc         1 OCK       0.054367
     28 H10         33.4350     8.9660   138.9910 hc         1 OCK       0.054700
     29 H11         34.1850     8.0180   140.2350 hc         1 OCK       0.054700
     30 H12         33.4640    11.2320   142.0280 hc         1 OCK       0.034367
     31 H13         32.3850    10.4480   140.8540 hc         1 OCK       0.034367
     32 H14         33.2120     9.4740   142.0930 hc         1 OCK       0.034367
     33 H15         37.9720     9.6550   137.8450 h1         1 OCK       0.058700
     34 H16         38.9510     8.9990   139.1120 h1         1 OCK       0.058700
     35 H17         38.8260    11.4480   139.3350 hc         1 OCK       0.042033
     36 H18         37.0600    11.4040   139.4700 hc         1 OCK       0.042033
     37 H19         38.0630    10.6880   140.7450 hc         1 OCK       0.042033
     38 H20         35.4490     5.1950   137.9450 hn         1 OCK       0.156000
     39 O1          34.8910     7.1290   136.6910 o          1 OCK      -0.534000
@<TRIPOS>BOND
     1     1     2 ar  
     2     1     6 ar  
     3     1    16 1   
     4     2     3 ar  
     5     2    19 1   
     6     3     4 ar  
     7     3    20 1   
     8     4     5 ar  
     9     4    21 1   
    10     5     6 ar  
    11     5    22 1   
    12     6    18 1   
    13     7    11 1   
    14     7    12 1   
    15     7    23 1   
    16     7    24 1   
    17     8     9 1   
    18     8    18 1   
    19     8    39 2   
    20     9    10 1   
    21     9    11 1   
    22     9    13 1   
    23    10    25 1   
    24    10    26 1   
    25    10    27 1   
    26    11    28 1   
    27    11    29 1   
    28    12    30 1   
    29    12    31 1   
    30    12    32 1   
    31    13    14 1   
    32    13    16 1   
    33    14    15 1   
    34    14    33 1   
    35    14    34 1   
    36    15    35 1   
    37    15    36 1   
    38    15    37 1   
    39    16    17 2   
    40    18    38 1   
@<TRIPOS>SUBSTRUCTURE
     1 OCK         1 TEMP              0 ****  ****    0 ROOT
