@<TRIPOS>MOLECULE
OCK
   39    40     1     0     0
SMALL
bcc


@<TRIPOS>ATOM
      1 C1          36.2150     6.6970   140.7730 ca         1 OCK      -0.172600
      2 C2          36.1440     6.4250   142.1410 ca         1 OCK      -0.055000
      3 C3          35.4050     5.3660   142.6290 ca         1 OCK      -0.160000
      4 C4          34.7460     4.5290   141.7350 ca         1 OCK      -0.081000
      5 C5          34.7980     4.7850   140.3790 ca         1 OCK      -0.186000
      6 C6          35.5100     5.8810   139.8870 ca         1 OCK       0.102600
      7 C11         34.5270     9.8920   140.5710 c3         1 OCK      -0.071400
      8 C7          35.4300     7.2540   137.8080 c          1 OCK       0.702500
      9 C8          35.5710     8.5700   138.5950 c3         1 OCK       0.078400
     10 C9          35.4930     9.7160   137.5830 c3         1 OCK      -0.093100
     11 C10         34.3760     8.7550   139.5680 c3         1 OCK      -0.089400
     12 C12         33.2770    10.0380   141.4280 c3         1 OCK      -0.092100
     13 N1          36.8880     8.5390   139.2710 n          1 OCK      -0.472800
     14 C13         37.9740     9.4280   138.8480 c3         1 OCK       0.102000
     15 C14         38.0500    10.7390   139.6170 c3         1 OCK      -0.111100
     16 C           37.1600     7.7670   140.3510 c          1 OCK       0.722100
     17 O           38.1960     7.9030   140.9920 o          1 OCK      -0.635500
     18 N           35.4960     6.0870   138.5100 ns         1 OCK      -0.474100
     19 H1          36.6880     7.0600   142.8270 ha         1 OCK       0.153000
     20 H2          35.3550     5.1820   143.6930 ha         1 OCK       0.140000
     21 H3          34.1790     3.6810   142.0960 ha         1 OCK       0.136000
     22 H4          34.2690     4.1420   139.6860 ha         1 OCK       0.137000
     23 H5          35.3850     9.7120   141.2240 hc         1 OCK       0.045200
     24 H6          34.7290    10.8360   140.0590 hc         1 OCK       0.045200
     25 H7          35.6700    10.6770   138.0600 hc         1 OCK       0.054367
     26 H8          36.1850     9.6120   136.7520 hc         1 OCK       0.054367
     27 H9          34.4900     9.7430   137.1610 hc         1 OCK       0.054367
     28 H10         33.5000     8.9420   138.9420 hc         1 OCK       0.054700
     29 H11         34.1390     7.8480   140.1220 hc         1 OCK       0.054700
     30 H12         33.3860    10.8480   142.1490 hc         1 OCK       0.034367
     31 H13         32.3990    10.2540   140.8160 hc         1 OCK       0.034367
     32 H14         33.0740     9.1230   141.9870 hc         1 OCK       0.034367
     33 H15         37.8730     9.6230   137.7850 h1         1 OCK       0.058700
     34 H16         38.9110     8.8870   138.9620 h1         1 OCK       0.058700
     35 H17         38.8920    11.3260   139.2490 hc         1 OCK       0.042033
     36 H18         37.1500    11.3430   139.4960 hc         1 OCK       0.042033
     37 H19         38.2000    10.5700   140.6810 hc         1 OCK       0.042033
     38 H20         35.3040     5.2680   137.9480 hn         1 OCK       0.322500
     39 O1          35.2750     7.2240   136.6040 o          1 OCK      -0.609500
@<TRIPOS>BOND
     1     1     2 ar  
     2     1     6 ar  
     3     1    16 1   
     4     2     3 ar  
     5     2    19 1   
     6     3     4 ar  
     7     3    20 1   
     8     4     5 ar  
     9     4    21 1   
    10     5     6 ar  
    11     5    22 1   
    12     6    18 1   
    13     7    11 1   
    14     7    12 1   
    15     7    23 1   
    16     7    24 1   
    17     8     9 1   
    18     8    18 1   
    19     8    39 2   
    20     9    10 1   
    21     9    11 1   
    22     9    13 1   
    23    10    25 1   
    24    10    26 1   
    25    10    27 1   
    26    11    28 1   
    27    11    29 1   
    28    12    30 1   
    29    12    31 1   
    30    12    32 1   
    31    13    14 1   
    32    13    16 1   
    33    14    15 1   
    34    14    33 1   
    35    14    34 1   
    36    15    35 1   
    37    15    36 1   
    38    15    37 1   
    39    16    17 2   
    40    18    38 1   
@<TRIPOS>SUBSTRUCTURE
     1 OCK         1 TEMP              0 ****  ****    0 ROOT
