@<TRIPOS>MOLECULE
OCP
   97    96     1     0     0
SMALL
abcg2


@<TRIPOS>ATOM
      1 P1           3.5840     0.6470    -3.0270 p5         1 OCP       1.412400
      2 O1           3.7480     0.0550    -1.4790 os         1 OCP      -0.605400
      3 O2           4.4730    -0.2040    -3.8950 o          1 OCP      -0.821500
      4 O4           3.7650     2.1430    -3.0030 o          1 OCP      -0.821500
      5 O5           1.8820     0.5980     0.5770 os         1 OCP      -0.467100
      6 O6           1.4400    -1.5810     0.1360 o          1 OCP      -0.536000
      7 O7           3.8060     2.0940     4.5710 o          1 OCP      -0.555000
      8 C1           4.0650     0.8540    -0.3700 c3         1 OCP       0.223600
      9 C2           3.2650     0.3740     0.8300 c3         1 OCP       0.166300
     10 C3           3.6330     1.1530     2.0720 c3         1 OCP       0.172600
     11 C4           1.8410     0.2180    -3.3620 c3         1 OCP      -0.437400
     12 C5           1.4640     0.4240    -4.8270 c3         1 OCP      -0.039400
     13 C6           0.0200     0.0420    -5.1340 c3         1 OCP      -0.073400
     14 C7          -0.3400     0.1970    -6.6060 c3         1 OCP      -0.076400
     15 C8          -1.7770    -0.1970    -6.9280 c3         1 OCP      -0.075400
     16 C9          -2.1200    -0.0660    -8.4060 c3         1 OCP      -0.075400
     17 C10         -3.5570    -0.4560    -8.7300 c3         1 OCP      -0.077400
     18 C11         -3.8910    -0.3330   -10.2100 c3         1 OCP      -0.087100
     19 C12          3.1030     1.1230     4.3680 c          1 OCP       0.638100
     20 N1           2.3950     0.4750     5.3050 ns         1 OCP      -0.506900
     21 C13          2.4940     0.8160     6.7090 c3         1 OCP       0.122000
     22 C14          1.4800     0.0290     7.5230 c3         1 OCP      -0.095400
     23 C15          1.5750     0.3500     9.0090 c3         1 OCP      -0.072400
     24 C16          0.5830    -0.4390     9.8540 c3         1 OCP      -0.074400
     25 C17          0.6840    -0.1210    11.3410 c3         1 OCP      -0.075400
     26 C18         -0.2960    -0.9160    12.1960 c3         1 OCP      -0.075400
     27 C19         -0.1860    -0.6060    13.6840 c3         1 OCP      -0.074400
     28 C20         -1.1640    -1.4090    14.5300 c3         1 OCP      -0.088100
     29 N2          -0.0630     0.0550    -0.3030 ns         1 OCP      -0.508900
     30 C23         -1.0160    -0.7830    -0.9970 c3         1 OCP       0.124000
     31 C24         -1.9870     0.0730    -1.7930 c3         1 OCP      -0.100400
     32 C25         -2.9070    -0.7650    -2.6700 c3         1 OCP      -0.071400
     33 C26         -3.8420     0.0870    -3.5190 c3         1 OCP      -0.076400
     34 C27         -4.7150    -0.7400    -4.4530 c3         1 OCP      -0.075400
     35 C28         -5.6050     0.1100    -5.3520 c3         1 OCP      -0.077400
     36 C29         -6.4690    -0.7180    -6.2950 c3         1 OCP      -0.076400
     37 C30         -7.3120     0.1370    -7.2310 c3         1 OCP      -0.088100
     38 H11          3.8550     1.9120    -0.5550 h1         1 OCP       0.034200
     39 H12          5.1330     0.7720    -0.1330 h1         1 OCP       0.034200
     40 H2           3.4570    -0.6890     0.9990 h1         1 OCP       0.087700
     41 H31          3.3720     2.2090     1.9590 h1         1 OCP       0.058200
     42 H32          4.7120     1.0880     2.2300 h1         1 OCP       0.058200
     43 H41          1.6700    -0.8250    -3.0800 hc         1 OCP       0.043200
     44 H42          1.1920     0.8200    -2.7190 hc         1 OCP       0.043200
     45 H51          1.6270     1.4700    -5.1070 hc         1 OCP       0.043700
     46 H52          2.1340    -0.1690    -5.4560 hc         1 OCP       0.043700
     47 H61         -0.1530    -0.9950    -4.8240 hc         1 OCP       0.025200
     48 H62         -0.6560     0.6530    -4.5260 hc         1 OCP       0.025200
     49 H71         -0.1710     1.2340    -6.9160 hc         1 OCP       0.036200
     50 H72          0.3430    -0.4130    -7.2080 hc         1 OCP       0.036200
     51 H81         -1.9510    -1.2300    -6.6050 hc         1 OCP       0.032200
     52 H82         -2.4660     0.4190    -6.3400 hc         1 OCP       0.032200
     53 H91         -1.9440     0.9660    -8.7320 hc         1 OCP       0.036200
     54 H92         -1.4360    -0.6880    -8.9930 hc         1 OCP       0.036200
     55 H101        -3.7360    -1.4840    -8.3980 hc         1 OCP       0.034700
     56 H102        -4.2440     0.1690    -8.1510 hc         1 OCP       0.034700
     57 H111        -4.9290    -0.6010   -10.4090 hc         1 OCP       0.027033
     58 H112        -3.7400     0.6880   -10.5660 hc         1 OCP       0.027033
     59 H113        -3.2600    -0.9880   -10.8150 hc         1 OCP       0.027033
     60 HN1          1.9250    -0.3790     5.0510 hn         1 OCP       0.328500
     61 H131         2.3160     1.8860     6.8370 h1         1 OCP       0.046700
     62 H132         3.5020     0.6120     7.0840 h1         1 OCP       0.046700
     63 H141         1.6430    -1.0430     7.3710 hc         1 OCP       0.045700
     64 H142         0.4710     0.2490     7.1610 hc         1 OCP       0.045700
     65 H151         1.4090     1.4220     9.1610 hc         1 OCP       0.040700
     66 H152         2.5920     0.1450     9.3600 hc         1 OCP       0.040700
     67 H161         0.7490    -1.5110     9.7010 hc         1 OCP       0.038200
     68 H162        -0.4350    -0.2340     9.5070 hc         1 OCP       0.038200
     69 H171         0.5130     0.9500    11.4950 hc         1 OCP       0.037200
     70 H172         1.7050    -0.3180    11.6840 hc         1 OCP       0.037200
     71 H181        -0.1290    -1.9870    12.0370 hc         1 OCP       0.037200
     72 H182        -1.3190    -0.7150    11.8580 hc         1 OCP       0.037200
     73 H191        -0.3560     0.4640    13.8440 hc         1 OCP       0.035700
     74 H192         0.8360    -0.8030    14.0200 hc         1 OCP       0.035700
     75 H201        -1.0550    -1.1850    15.5920 hc         1 OCP       0.030033
     76 H202        -2.1970    -1.1920    14.2530 hc         1 OCP       0.030033
     77 H203        -1.0090    -2.4820    14.4030 hc         1 OCP       0.030033
     78 HN2         -0.2100     1.0520    -0.3150 hn         1 OCP       0.322500
     79 H231        -0.4840    -1.4530    -1.6770 h1         1 OCP       0.047200
     80 H232        -1.5660    -1.4150    -0.2920 h1         1 OCP       0.047200
     81 H241        -2.5810     0.6930    -1.1140 hc         1 OCP       0.047200
     82 H242        -1.4180     0.7590    -2.4290 hc         1 OCP       0.047200
     83 H251        -2.2960    -1.3880    -3.3320 hc         1 OCP       0.041200
     84 H252        -3.4920    -1.4510    -2.0490 hc         1 OCP       0.041200
     85 H261        -4.4750     0.6990    -2.8680 hc         1 OCP       0.039200
     86 H262        -3.2430     0.7890    -4.1110 hc         1 OCP       0.039200
     87 H271        -4.0730    -1.3680    -5.0800 hc         1 OCP       0.037200
     88 H272        -5.3360    -1.4240    -3.8650 hc         1 OCP       0.037200
     89 H281        -6.2460     0.7510    -4.7370 hc         1 OCP       0.037700
     90 H282        -4.9720     0.7880    -5.9390 hc         1 OCP       0.037700
     91 H291        -5.8230    -1.3750    -6.8860 hc         1 OCP       0.036200
     92 H292        -7.1180    -1.3750    -5.7090 hc         1 OCP       0.036200
     93 H301        -7.9240    -0.4760    -7.8940 hc         1 OCP       0.029033
     94 H302        -7.9840     0.7930    -6.6730 hc         1 OCP       0.029033
     95 H303        -6.6810     0.7700    -7.8580 hc         1 OCP       0.029033
     96 O3           2.9290     0.5690     3.1600 os         1 OCP      -0.451100
     97 C22          1.1190    -0.4110     0.1280 c          1 OCP       0.659100
@<TRIPOS>BOND
     1     1     2 1   
     2     1     3 1   
     3     1     4 1   
     4     1    11 1   
     5     2     8 1   
     6     5     9 1   
     7     5    97 1   
     8     6    97 2   
     9     7    19 2   
    10     8     9 1   
    11     8    38 1   
    12     8    39 1   
    13     9    10 1   
    14     9    40 1   
    15    10    41 1   
    16    10    42 1   
    17    10    96 1   
    18    11    12 1   
    19    11    43 1   
    20    11    44 1   
    21    12    13 1   
    22    12    45 1   
    23    12    46 1   
    24    13    14 1   
    25    13    47 1   
    26    13    48 1   
    27    14    15 1   
    28    14    49 1   
    29    14    50 1   
    30    15    16 1   
    31    15    51 1   
    32    15    52 1   
    33    16    17 1   
    34    16    53 1   
    35    16    54 1   
    36    17    18 1   
    37    17    55 1   
    38    17    56 1   
    39    18    57 1   
    40    18    58 1   
    41    18    59 1   
    42    19    20 1   
    43    19    96 1   
    44    20    21 1   
    45    20    60 1   
    46    21    22 1   
    47    21    61 1   
    48    21    62 1   
    49    22    23 1   
    50    22    63 1   
    51    22    64 1   
    52    23    24 1   
    53    23    65 1   
    54    23    66 1   
    55    24    25 1   
    56    24    67 1   
    57    24    68 1   
    58    25    26 1   
    59    25    69 1   
    60    25    70 1   
    61    26    27 1   
    62    26    71 1   
    63    26    72 1   
    64    27    28 1   
    65    27    73 1   
    66    27    74 1   
    67    28    75 1   
    68    28    76 1   
    69    28    77 1   
    70    29    30 1   
    71    29    78 1   
    72    29    97 1   
    73    30    31 1   
    74    30    79 1   
    75    30    80 1   
    76    31    32 1   
    77    31    81 1   
    78    31    82 1   
    79    32    33 1   
    80    32    83 1   
    81    32    84 1   
    82    33    34 1   
    83    33    85 1   
    84    33    86 1   
    85    34    35 1   
    86    34    87 1   
    87    34    88 1   
    88    35    36 1   
    89    35    89 1   
    90    35    90 1   
    91    36    37 1   
    92    36    91 1   
    93    36    92 1   
    94    37    93 1   
    95    37    94 1   
    96    37    95 1   
@<TRIPOS>SUBSTRUCTURE
     1 OCP         1 TEMP              0 ****  ****    0 ROOT
