@<TRIPOS>MOLECULE
OCP
   97    96     1     0     0
SMALL
No Charge or Current Charge


@<TRIPOS>ATOM
      1 P1           4.3460    -0.1870    -3.1760 p5         1 OCP       1.412400
      2 O1           4.4470    -0.4690    -1.5900 os         1 OCP      -0.605400
      3 O2           4.7950    -1.3770    -3.9600 o          1 OCP      -0.821500
      4 O4           5.0700     1.0600    -3.5640 o          1 OCP      -0.821500
      5 O5           2.0970     0.2890     0.2530 os         1 OCP      -0.467100
      6 O6           1.9150    -1.9310    -0.3490 o          1 OCP      -0.536000
      7 O7           3.7810     2.3520     4.2660 o          1 OCP      -0.555000
      8 C1           4.3510     0.6190    -0.6550 c3         1 OCP       0.223600
      9 C2           3.5060     0.1970     0.5830 c3         1 OCP       0.166300
     10 C3           3.7550     1.1420     1.7830 c3         1 OCP       0.172600
     11 C4           2.5290     0.0210    -3.3540 c3         1 OCP      -0.437400
     12 C5           2.0290     0.2690    -4.7950 c3         1 OCP      -0.039400
     13 C6           0.4880     0.3170    -4.8800 c3         1 OCP      -0.073400
     14 C7          -0.0440     0.5220    -6.3150 c3         1 OCP      -0.076400
     15 C8          -1.5860     0.5160    -6.3860 c3         1 OCP      -0.075400
     16 C9          -2.1320     0.7110    -7.8170 c3         1 OCP      -0.075400
     17 C10         -3.6740     0.6790    -7.8800 c3         1 OCP      -0.077400
     18 C11         -4.2310     0.8690    -9.3030 c3         1 OCP      -0.087100
     19 C12          3.1910     1.2950     4.1090 c          1 OCP       0.638100
     20 N1           2.5100     0.6250     5.0830 ns         1 OCP      -0.506900
     21 C13          2.3860     1.0800     6.4640 c3         1 OCP       0.122000
     22 C14          1.4960     0.1370     7.2960 c3         1 OCP      -0.095400
     23 C15          1.3450     0.5940     8.7640 c3         1 OCP      -0.072400
     24 C16          0.4530    -0.3490     9.6010 c3         1 OCP      -0.074400
     25 C17          0.3020     0.1070    11.0680 c3         1 OCP      -0.075400
     26 C18         -0.5900    -0.8350    11.9060 c3         1 OCP      -0.075400
     27 C19         -0.7420    -0.3790    13.3730 c3         1 OCP      -0.074400
     28 C20         -1.6320    -1.3190    14.2090 c3         1 OCP      -0.088100
     29 N2           0.2110    -0.4230    -0.6470 ns         1 OCP      -0.508900
     30 C23         -0.7230    -1.2750    -1.3740 c3         1 OCP       0.124000
     31 C24         -1.8960    -0.4570    -1.9460 c3         1 OCP      -0.100400
     32 C25         -2.8120    -1.2790    -2.8770 c3         1 OCP      -0.071400
     33 C26         -3.9780    -0.4480    -3.4560 c3         1 OCP      -0.076400
     34 C27         -4.8470    -1.2370    -4.4580 c3         1 OCP      -0.075400
     35 C28         -6.0010    -0.3960    -5.0450 c3         1 OCP      -0.077400
     36 C29         -6.8300    -1.1590    -6.1020 c3         1 OCP      -0.076400
     37 C30         -7.9470    -0.3010    -6.7250 c3         1 OCP      -0.088100
     38 H11          3.9010     1.5120    -1.1100 h1         1 OCP       0.034200
     39 H12          5.3600     0.8960    -0.3200 h1         1 OCP       0.034200
     40 H2           3.7950    -0.8160     0.8930 h1         1 OCP       0.087700
     41 H31          3.3660     2.1420     1.5470 h1         1 OCP       0.058200
     42 H32          4.8360     1.2280     1.9590 h1         1 OCP       0.058200
     43 H41          2.0870    -0.9040    -2.9730 hc         1 OCP       0.043200
     44 H42          2.2160     0.8430    -2.7020 hc         1 OCP       0.043200
     45 H51          2.4460     1.2120    -5.1710 hc         1 OCP       0.043700
     46 H52          2.3990    -0.5300    -5.4500 hc         1 OCP       0.043700
     47 H61          0.0800    -0.6190    -4.4800 hc         1 OCP       0.025200
     48 H62          0.1190     1.1280    -4.2410 hc         1 OCP       0.025200
     49 H71          0.3350     1.4730    -6.7090 hc         1 OCP       0.036200
     50 H72          0.3480    -0.2730    -6.9610 hc         1 OCP       0.036200
     51 H81         -1.9590    -0.4350    -5.9870 hc         1 OCP       0.032200
     52 H82         -1.9790     1.3110    -5.7400 hc         1 OCP       0.032200
     53 H91         -1.7740     1.6690    -8.2130 hc         1 OCP       0.036200
     54 H92         -1.7290    -0.0760    -8.4670 hc         1 OCP       0.036200
     55 H101        -4.0300    -0.2810    -7.4870 hc         1 OCP       0.034700
     56 H102        -4.0800     1.4640    -7.2310 hc         1 OCP       0.034700
     57 H111        -5.3270     0.8350    -9.2910 hc         1 OCP       0.027033
     58 H112        -3.9220     1.8380    -9.7140 hc         1 OCP       0.027033
     59 H113        -3.8700     0.0770    -9.9700 hc         1 OCP       0.027033
     60 HN1          2.0690    -0.2410     4.8020 hn         1 OCP       0.328500
     61 H131         1.9550     2.0900     6.4660 h1         1 OCP       0.046700
     62 H132         3.3880     1.1320     6.9110 h1         1 OCP       0.046700
     63 H141         1.9250    -0.8730     7.2740 hc         1 OCP       0.045700
     64 H142         0.5040     0.0780     6.8320 hc         1 OCP       0.045700
     65 H151         0.9190     1.6050     8.7840 hc         1 OCP       0.040700
     66 H152         2.3380     0.6550     9.2260 hc         1 OCP       0.040700
     67 H161         0.8790    -1.3600     9.5800 hc         1 OCP       0.038200
     68 H162        -0.5400    -0.4110     9.1380 hc         1 OCP       0.038200
     69 H171        -0.1250     1.1180    11.0890 hc         1 OCP       0.037200
     70 H172         1.2950     0.1690    11.5310 hc         1 OCP       0.037200
     71 H181        -0.1640    -1.8460    11.8850 hc         1 OCP       0.037200
     72 H182        -1.5830    -0.8970    11.4430 hc         1 OCP       0.037200
     73 H191        -1.1700     0.6310    13.3970 hc         1 OCP       0.035700
     74 H192         0.2490    -0.3180    13.8400 hc         1 OCP       0.035700
     75 H201        -1.7100    -0.9550    15.2400 hc         1 OCP       0.030033
     76 H202        -2.6430    -1.3740    13.7870 hc         1 OCP       0.030033
     77 H203        -1.2110    -2.3320    14.2330 hc         1 OCP       0.030033
     78 HN2         -0.0200     0.5510    -0.5010 hn         1 OCP       0.322500
     79 H231        -0.1830    -1.7640    -2.1950 h1         1 OCP       0.047200
     80 H232        -1.1020    -2.0530    -0.6980 h1         1 OCP       0.047200
     81 H241        -2.4870    -0.0480    -1.1170 hc         1 OCP       0.047200
     82 H242        -1.4970     0.3970    -2.5060 hc         1 OCP       0.047200
     83 H251        -2.2130    -1.6840    -3.7020 hc         1 OCP       0.041200
     84 H252        -3.2170    -2.1360    -2.3250 hc         1 OCP       0.041200
     85 H261        -4.6090    -0.0900    -2.6330 hc         1 OCP       0.039200
     86 H262        -3.5730     0.4410    -3.9560 hc         1 OCP       0.039200
     87 H271        -4.2110    -1.5980    -5.2760 hc         1 OCP       0.037200
     88 H272        -5.2610    -2.1230    -3.9610 hc         1 OCP       0.037200
     89 H281        -6.6630    -0.0740    -4.2310 hc         1 OCP       0.037700
     90 H282        -5.5900     0.5130    -5.4990 hc         1 OCP       0.037700
     91 H291        -6.1660    -1.5120    -6.9010 hc         1 OCP       0.036200
     92 H292        -7.2760    -2.0490    -5.6410 hc         1 OCP       0.036200
     93 H301        -8.5090    -0.8840    -7.4650 hc         1 OCP       0.029033
     94 H302        -8.6470     0.0430    -5.9550 hc         1 OCP       0.029033
     95 H303        -7.5250     0.5770    -7.2290 hc         1 OCP       0.029033
     96 O3           3.1020     0.5940     2.9470 os         1 OCP      -0.451100
     97 C22          1.4610    -0.8020    -0.2560 c          1 OCP       0.659100
@<TRIPOS>BOND
     1     1     2 1   
     2     1     3 1   
     3     1     4 1   
     4     1    11 1   
     5     2     8 1   
     6     5     9 1   
     7     5    97 1   
     8     6    97 2   
     9     7    19 2   
    10     8     9 1   
    11     8    38 1   
    12     8    39 1   
    13     9    10 1   
    14     9    40 1   
    15    10    41 1   
    16    10    42 1   
    17    10    96 1   
    18    11    12 1   
    19    11    43 1   
    20    11    44 1   
    21    12    13 1   
    22    12    45 1   
    23    12    46 1   
    24    13    14 1   
    25    13    47 1   
    26    13    48 1   
    27    14    15 1   
    28    14    49 1   
    29    14    50 1   
    30    15    16 1   
    31    15    51 1   
    32    15    52 1   
    33    16    17 1   
    34    16    53 1   
    35    16    54 1   
    36    17    18 1   
    37    17    55 1   
    38    17    56 1   
    39    18    57 1   
    40    18    58 1   
    41    18    59 1   
    42    19    20 1   
    43    19    96 1   
    44    20    21 1   
    45    20    60 1   
    46    21    22 1   
    47    21    61 1   
    48    21    62 1   
    49    22    23 1   
    50    22    63 1   
    51    22    64 1   
    52    23    24 1   
    53    23    65 1   
    54    23    66 1   
    55    24    25 1   
    56    24    67 1   
    57    24    68 1   
    58    25    26 1   
    59    25    69 1   
    60    25    70 1   
    61    26    27 1   
    62    26    71 1   
    63    26    72 1   
    64    27    28 1   
    65    27    73 1   
    66    27    74 1   
    67    28    75 1   
    68    28    76 1   
    69    28    77 1   
    70    29    30 1   
    71    29    78 1   
    72    29    97 1   
    73    30    31 1   
    74    30    79 1   
    75    30    80 1   
    76    31    32 1   
    77    31    81 1   
    78    31    82 1   
    79    32    33 1   
    80    32    83 1   
    81    32    84 1   
    82    33    34 1   
    83    33    85 1   
    84    33    86 1   
    85    34    35 1   
    86    34    87 1   
    87    34    88 1   
    88    35    36 1   
    89    35    89 1   
    90    35    90 1   
    91    36    37 1   
    92    36    91 1   
    93    36    92 1   
    94    37    93 1   
    95    37    94 1   
    96    37    95 1   
@<TRIPOS>SUBSTRUCTURE
     1 OCP         1 TEMP              0 ****  ****    0 ROOT
