@<TRIPOS>MOLECULE
OCQ
   27    27     1     0     0
SMALL
bcc


@<TRIPOS>ATOM
      1 OAD          2.5260    -0.6560    -1.9940 o          1 OCQ      -0.620500
      2 CD2          2.5310    -0.1600    -0.8790 c          1 OCQ       0.704500
      3 NAH          3.5080     0.5920    -0.3490 ns         1 OCQ      -0.580900
      4 CAE          3.2830     0.9940     1.0230 c5         1 OCQ       0.100000
      5 CD1          1.7720     0.8100     1.1720 c5         1 OCQ      -0.094400
      6 CG           1.4350    -0.2940     0.1680 c5         1 OCQ      -0.158700
      7 CB           0.0390    -0.2300    -0.4290 c3         1 OCQ      -0.098400
      8 CA          -1.0600    -0.3580     0.6430 c3         1 OCQ       0.061500
      9 N           -1.0450    -1.5910     1.4040 n8         1 OCQ      -0.878800
     10 C           -2.4030    -0.2080    -0.0490 c          1 OCQ       0.573100
     11 O           -2.9700    -1.1470    -0.5520 o          1 OCQ      -0.472100
     12 CMK         -2.9600     1.1880    -0.0730 c3         1 OCQ       0.037400
     13 OMP         -4.0870     1.2470    -0.8910 oh         1 OCQ      -0.563800
     14 HMP         -4.4190     2.1490    -0.8750 ho         1 OCQ       0.407000
     15 HMK1        -3.1730     1.4510     0.9750 h1         1 OCQ       0.035200
     16 HMK2        -2.1580     1.8720    -0.3880 h1         1 OCQ       0.035200
     17 HA          -0.9470     0.4720     1.3490 h1         1 OCQ       0.063700
     18 HN1         -1.0510    -2.3880     0.7780 hn         1 OCQ       0.351800
     19 HN2         -0.1880    -1.6540     1.9380 hn         1 OCQ       0.351800
     20 HB1         -0.0740     0.7180    -0.9670 hc         1 OCQ       0.068700
     21 HB2         -0.0850    -1.0290    -1.1650 hc         1 OCQ       0.068700
     22 HG           1.5850    -1.2780     0.6330 hc         1 OCQ       0.070700
     23 HAH          4.3910     0.7280    -0.8160 hn         1 OCQ       0.330500
     24 HAE1         3.8380     0.3570     1.7180 h1         1 OCQ       0.046200
     25 HAE2         3.5980     2.0230     1.1880 h1         1 OCQ       0.046200
     26 HD11         1.4900     0.5710     2.1960 hc         1 OCQ       0.057200
     27 HD12         1.2580     1.7320     0.8910 hc         1 OCQ       0.057200
@<TRIPOS>BOND
     1     1     2 2   
     2     2     3 1   
     3     2     6 1   
     4     3     4 1   
     5     3    23 1   
     6     4     5 1   
     7     4    24 1   
     8     4    25 1   
     9     5     6 1   
    10     5    26 1   
    11     5    27 1   
    12     6     7 1   
    13     6    22 1   
    14     7     8 1   
    15     7    20 1   
    16     7    21 1   
    17     8     9 1   
    18     8    10 1   
    19     8    17 1   
    20     9    18 1   
    21     9    19 1   
    22    10    11 2   
    23    10    12 1   
    24    12    13 1   
    25    12    15 1   
    26    12    16 1   
    27    13    14 1   
@<TRIPOS>SUBSTRUCTURE
     1 OCQ         1 TEMP              0 ****  ****    0 ROOT
