@<TRIPOS>MOLECULE
OCQ
   27    27     1     0     0
SMALL
No Charge or Current Charge


@<TRIPOS>ATOM
      1 OAD          2.5250    -0.3880    -2.0750 o          1 OCQ      -0.545000
      2 CD2          2.5640    -0.1340    -0.8820 c          1 OCQ       0.562000
      3 NAH          3.5470     0.6260    -0.3090 ns         1 OCQ      -0.513900
      4 CAE          3.3130     0.9720     1.0910 c5         1 OCQ       0.100000
      5 CD1          1.7630     0.8960     1.1460 c5         1 OCQ      -0.094400
      6 CG           1.4770    -0.2990     0.1930 c5         1 OCQ      -0.158700
      7 CB           0.0310    -0.3570    -0.3830 c3         1 OCQ      -0.098400
      8 CA          -1.1090    -0.4770     0.6670 c3         1 OCQ       0.061500
      9 N           -0.9540    -1.7430     1.4620 n8         1 OCQ      -0.989200
     10 C           -2.5170    -0.2520     0.0010 c          1 OCQ       0.573100
     11 O           -3.2280    -1.1940    -0.3500 o          1 OCQ      -0.472100
     12 CMK         -2.9520     1.2380    -0.1600 c3         1 OCQ       0.060600
     13 OMP         -4.2260     1.4180    -0.8290 oh         1 OCQ      -0.626000
     14 HMP         -4.4060     2.3850    -0.8710 ho         1 OCQ       0.446000
     15 HMK1        -2.9860     1.6770     0.8460 h1         1 OCQ       0.035200
     16 HMK2        -2.1580     1.7560    -0.7120 h1         1 OCQ       0.035200
     17 HA          -0.9890     0.3570     1.3730 h1         1 OCQ       0.063700
     18 HN1         -1.0980    -2.5540     0.8450 hn         1 OCQ       0.407000
     19 HN2          0.0230    -1.8380     1.7640 hn         1 OCQ       0.407000
     20 HB1         -0.1390     0.5460    -0.9820 hc         1 OCQ       0.068700
     21 HB2         -0.0510    -1.1960    -1.0870 hc         1 OCQ       0.068700
     22 HG           1.7060    -1.2280     0.7280 hc         1 OCQ       0.070700
     23 HAH          4.3310     0.9270    -0.8770 hn         1 OCQ       0.330500
     24 HAE1         3.7770     0.2400     1.7660 h1         1 OCQ       0.046200
     25 HAE2         3.6860     1.9710     1.3530 h1         1 OCQ       0.046200
     26 HD11         1.3850     0.7400     2.1640 hc         1 OCQ       0.057200
     27 HD12         1.3170     1.8230     0.7670 hc         1 OCQ       0.057200
@<TRIPOS>BOND
     1     1     2 2   
     2     2     3 1   
     3     2     6 1   
     4     3     4 1   
     5     3    23 1   
     6     4     5 1   
     7     4    24 1   
     8     4    25 1   
     9     5     6 1   
    10     5    26 1   
    11     5    27 1   
    12     6     7 1   
    13     6    22 1   
    14     7     8 1   
    15     7    20 1   
    16     7    21 1   
    17     8     9 1   
    18     8    10 1   
    19     8    17 1   
    20     9    18 1   
    21     9    19 1   
    22    10    11 2   
    23    10    12 1   
    24    12    13 1   
    25    12    15 1   
    26    12    16 1   
    27    13    14 1   
@<TRIPOS>SUBSTRUCTURE
     1 OCQ         1 TEMP              0 ****  ****    0 ROOT
