@<TRIPOS>MOLECULE
OCR
   52    51     1     0     0
SMALL
No Charge or Current Charge


@<TRIPOS>ATOM
      1 C1          11.4800     0.1010     0.1630 c3         1 OCR      -0.088100
      2 C2          10.0670     0.6630    -0.0800 c3         1 OCR      -0.075400
      3 C3           8.9870    -0.4370    -0.1770 c3         1 OCR      -0.077400
      4 C4           7.5700     0.1270    -0.4210 c3         1 OCR      -0.066400
      5 C5           6.4890    -0.9750    -0.5180 c3         1 OCR      -0.176400
      6 C6           5.0990    -0.3700    -0.7470 c          1 OCR       0.573300
      7 O7           4.6940    -0.1160    -1.8740 o          1 OCR      -0.538100
      8 C8           4.2720    -0.0930     0.4630 ce         1 OCR      -0.341200
      9 C9           3.0190     0.4420     0.4460 cf         1 OCR      -0.076000
     10 C11          2.2330     0.7040     1.6460 cf         1 OCR      -0.237000
     11 C12          0.9870     1.2370     1.6700 c2         1 OCR      -0.143200
     12 C13          0.1520     1.6720     0.4810 c3         1 OCR      -0.018000
     13 C14         -0.4990     0.4830    -0.1960 c2         1 OCR      -0.250200
     14 C15         -1.7860     0.4150    -0.5730 c2         1 OCR      -0.183200
     15 C16         -2.4370    -0.7720    -1.2490 c3         1 OCR      -0.002000
     16 C17         -3.7060    -1.1700    -0.5280 c2         1 OCR      -0.267200
     17 C18         -4.9060    -1.3430    -1.1030 c2         1 OCR      -0.173200
     18 C19         -6.1720    -1.7500    -0.3770 c3         1 OCR      -0.057200
     19 C20         -7.2510    -0.6470    -0.4230 c3         1 OCR      -0.049400
     20 C21         -8.5570    -1.0370     0.3120 c3         1 OCR      -0.205400
     21 C22         -9.5800     0.1090     0.2200 c          1 OCR       0.717000
     22 O23         -9.5600     0.9710     1.0860 o          1 OCR      -0.742000
     23 O24        -10.3360     0.1330    -0.7390 o          1 OCR      -0.742000
     24 H1          11.5170    -0.4640     1.1030 hc         1 OCR       0.029700
     25 H1A         11.7790    -0.5670    -0.6540 hc         1 OCR       0.029700
     26 H1B         12.2110     0.9160     0.2240 hc         1 OCR       0.029700
     27 H2           9.8120     1.3520     0.7340 hc         1 OCR       0.038700
     28 H2A         10.0720     1.2500    -1.0070 hc         1 OCR       0.038700
     29 H3           9.2460    -1.1250    -0.9910 hc         1 OCR       0.034700
     30 H3A          8.9860    -1.0230     0.7510 hc         1 OCR       0.034700
     31 H4           7.3100     0.8170     0.3930 hc         1 OCR       0.051200
     32 H4A          7.5700     0.7150    -1.3480 hc         1 OCR       0.051200
     33 H5           6.7360    -1.6450    -1.3500 hc         1 OCR       0.058200
     34 H5A          6.4960    -1.5230     0.4310 hc         1 OCR       0.058200
     35 H8           4.7270    -0.3440     1.4190 ha         1 OCR       0.178000
     36 H9           2.5710     0.6910    -0.5200 ha         1 OCR       0.191000
     37 H11          2.6990     0.4420     2.5980 ha         1 OCR       0.173000
     38 H12          0.4950     1.3830     2.6340 ha         1 OCR       0.178000
     39 H13         -0.6110     2.3890     0.8080 hc         1 OCR       0.056200
     40 H13A         0.7780     2.2140    -0.2380 hc         1 OCR       0.056200
     41 H14          0.1710    -0.3620    -0.3660 ha         1 OCR       0.166000
     42 H15         -2.4590     1.2580    -0.4060 ha         1 OCR       0.176000
     43 H16         -2.6550    -0.5240    -2.2960 hc         1 OCR       0.042200
     44 H16A        -1.7450    -1.6230    -1.2740 hc         1 OCR       0.042200
     45 H17         -3.5820    -1.3210     0.5470 ha         1 OCR       0.166000
     46 H18         -5.0310    -1.1970    -2.1780 ha         1 OCR       0.158000
     47 H19         -6.5740    -2.6670    -0.8260 hc         1 OCR       0.034700
     48 H19A        -5.9500    -1.9870     0.6700 hc         1 OCR       0.034700
     49 H20         -6.8440     0.2690     0.0240 hc         1 OCR       0.041200
     50 H20A        -7.4820    -0.4140    -1.4700 hc         1 OCR       0.041200
     51 H21         -8.9350    -1.9300    -0.2010 hc         1 OCR       0.015200
     52 H21A        -8.2720    -1.2150     1.3570 hc         1 OCR       0.015200
@<TRIPOS>BOND
     1     1     2 1   
     2     1    24 1   
     3     1    25 1   
     4     1    26 1   
     5     2     3 1   
     6     2    27 1   
     7     2    28 1   
     8     3     4 1   
     9     3    29 1   
    10     3    30 1   
    11     4     5 1   
    12     4    31 1   
    13     4    32 1   
    14     5     6 1   
    15     5    33 1   
    16     5    34 1   
    17     6     7 2   
    18     6     8 1   
    19     8     9 2   
    20     8    35 1   
    21     9    10 1   
    22     9    36 1   
    23    10    11 2   
    24    10    37 1   
    25    11    12 1   
    26    11    38 1   
    27    12    13 1   
    28    12    39 1   
    29    12    40 1   
    30    13    14 2   
    31    13    41 1   
    32    14    15 1   
    33    14    42 1   
    34    15    16 1   
    35    15    43 1   
    36    15    44 1   
    37    16    17 2   
    38    16    45 1   
    39    17    18 1   
    40    17    46 1   
    41    18    19 1   
    42    18    47 1   
    43    18    48 1   
    44    19    20 1   
    45    19    49 1   
    46    19    50 1   
    47    20    21 1   
    48    20    51 1   
    49    20    52 1   
    50    21    22 1   
    51    21    23 1   
@<TRIPOS>SUBSTRUCTURE
     1 OCR         1 TEMP              0 ****  ****    0 ROOT
