@<TRIPOS>MOLECULE
OCR
   52    51     1     0     0
SMALL
bcc


@<TRIPOS>ATOM
      1 C1          11.8990     0.2490     0.0380 c3         1 OCR      -0.088100
      2 C2          10.5520     0.7420    -0.4740 c3         1 OCR      -0.075400
      3 C3           9.3730     0.1030     0.2500 c3         1 OCR      -0.077400
      4 C4           8.0250     0.5830    -0.2730 c3         1 OCR      -0.066400
      5 C5           6.8630    -0.0290     0.4910 c3         1 OCR      -0.176400
      6 C6           5.4940     0.3600    -0.0050 c          1 OCR       0.573300
      7 O7           5.3310     0.9880    -1.0340 o          1 OCR      -0.538100
      8 C8           4.3650    -0.0810     0.8350 ce         1 OCR      -0.291200
      9 C9           3.0860     0.1370     0.4860 cf         1 OCR      -0.026000
     10 C11          1.9580    -0.2600     1.2980 cf         1 OCR      -0.187000
     11 C12          0.6680    -0.0680     0.9860 c2         1 OCR      -0.093200
     12 C13          0.1100     0.5490    -0.2590 c3         1 OCR      -0.018000
     13 C14         -0.7930    -0.4170    -0.9740 c2         1 OCR      -0.200200
     14 C15         -2.0820    -0.2000    -1.2140 c2         1 OCR      -0.133200
     15 C16         -3.0020    -1.1550    -1.9150 c3         1 OCR      -0.002000
     16 C17         -4.1790    -1.5080    -1.0530 c2         1 OCR      -0.217200
     17 C18         -5.4430    -1.2140    -1.3450 c2         1 OCR      -0.123200
     18 C19         -6.6270    -1.5040    -0.4780 c3         1 OCR      -0.057200
     19 C20         -7.3610    -0.2280    -0.0590 c3         1 OCR      -0.049400
     20 C21         -8.6030    -0.5160     0.7680 c3         1 OCR      -0.205400
     21 C22         -9.4320     0.7100     1.1900 c          1 OCR       0.927600
     22 O23        -10.4420     0.4730     1.8860 o          1 OCR      -0.847300
     23 O24         -9.0480     1.8340     0.8090 o          1 OCR      -0.847300
     24 H1          12.0190     0.4650     1.1010 hc         1 OCR       0.029700
     25 H1A         11.9980    -0.8300    -0.0900 hc         1 OCR       0.029700
     26 H1B         12.7260     0.7230    -0.4910 hc         1 OCR       0.029700
     27 H2          10.4940     1.8290    -0.3670 hc         1 OCR       0.038700
     28 H2A         10.4710     0.5390    -1.5460 hc         1 OCR       0.038700
     29 H3           9.4350    -0.9860     0.1540 hc         1 OCR       0.034700
     30 H3A          9.4500     0.3160     1.3220 hc         1 OCR       0.034700
     31 H4           7.9740     1.6730    -0.2020 hc         1 OCR       0.051200
     32 H4A          7.9410     0.3410    -1.3350 hc         1 OCR       0.051200
     33 H5           6.9150    -1.1250     0.4590 hc         1 OCR       0.058200
     34 H5A          6.9250     0.2180     1.5570 hc         1 OCR       0.058200
     35 H8           4.6020    -0.5920     1.7620 ha         1 OCR       0.128000
     36 H9           2.8900     0.6460    -0.4510 ha         1 OCR       0.141000
     37 H11          2.1900    -0.7430     2.2420 ha         1 OCR       0.123000
     38 H12         -0.0750    -0.4080     1.7000 ha         1 OCR       0.128000
     39 H13         -0.4600     1.4420     0.0130 hc         1 OCR       0.056200
     40 H13A         0.9070     0.8760    -0.9300 hc         1 OCR       0.056200
     41 H14         -0.3360    -1.3480    -1.3000 ha         1 OCR       0.116000
     42 H15         -2.5330     0.7320    -0.8810 ha         1 OCR       0.126000
     43 H16         -3.3600    -0.7040    -2.8460 hc         1 OCR       0.042200
     44 H16A        -2.4490    -2.0580    -2.1920 hc         1 OCR       0.042200
     45 H17         -3.9520    -2.0160    -0.1180 ha         1 OCR       0.116000
     46 H18         -5.6550    -0.6980    -2.2800 ha         1 OCR       0.108000
     47 H19         -7.3270    -2.1470    -1.0230 hc         1 OCR       0.034700
     48 H19A        -6.3120    -2.0650     0.4070 hc         1 OCR       0.034700
     49 H20         -6.6730     0.4110     0.5010 hc         1 OCR       0.041200
     50 H20A        -7.6380     0.3380    -0.9540 hc         1 OCR       0.041200
     51 H21         -9.2620    -1.1940     0.2120 hc         1 OCR       0.015200
     52 H21A        -8.3240    -1.0720     1.6710 hc         1 OCR       0.015200
@<TRIPOS>BOND
     1     1     2 1   
     2     1    24 1   
     3     1    25 1   
     4     1    26 1   
     5     2     3 1   
     6     2    27 1   
     7     2    28 1   
     8     3     4 1   
     9     3    29 1   
    10     3    30 1   
    11     4     5 1   
    12     4    31 1   
    13     4    32 1   
    14     5     6 1   
    15     5    33 1   
    16     5    34 1   
    17     6     7 2   
    18     6     8 1   
    19     8     9 2   
    20     8    35 1   
    21     9    10 1   
    22     9    36 1   
    23    10    11 2   
    24    10    37 1   
    25    11    12 1   
    26    11    38 1   
    27    12    13 1   
    28    12    39 1   
    29    12    40 1   
    30    13    14 2   
    31    13    41 1   
    32    14    15 1   
    33    14    42 1   
    34    15    16 1   
    35    15    43 1   
    36    15    44 1   
    37    16    17 2   
    38    16    45 1   
    39    17    18 1   
    40    17    46 1   
    41    18    19 1   
    42    18    47 1   
    43    18    48 1   
    44    19    20 1   
    45    19    49 1   
    46    19    50 1   
    47    20    21 1   
    48    20    51 1   
    49    20    52 1   
    50    21    22 1   
    51    21    23 1   
@<TRIPOS>SUBSTRUCTURE
     1 OCR         1 TEMP              0 ****  ****    0 ROOT
