@<TRIPOS>MOLECULE
OCS
   15    14     1     0     0
SMALL
abcg2


@<TRIPOS>ATOM
      1 N           72.3930    97.5500    16.6960 n8         1 OCS      -1.032200
      2 CA          71.0830    97.7270    16.0900 c3         1 OCS       0.062500
      3 CB          70.8340    96.8480    14.8640 c3         1 OCS      -0.342400
      4 SG          71.9500    97.1420    13.4730 s6         1 OCS       1.317600
      5 C           69.9330    97.4810    17.1120 c          1 OCS       0.709000
      6 O           70.2520    97.0290    18.2290 o          1 OCS      -0.760500
      7 OXT         68.7870    97.7640    16.7160 o          1 OCS      -0.760500
      8 OD1         71.9520    98.6030    13.2510 o          1 OCS      -0.724200
      9 OD2         73.2750    96.6200    13.8830 o          1 OCS      -0.724200
     10 OD3         71.3670    96.3890    12.3440 o          1 OCS      -0.724200
     11 H           72.2450    97.0910    17.5870 hn         1 OCS       0.396500
     12 HN2         72.9770    96.9490    16.1310 hn         1 OCS       0.396500
     13 HA          70.9660    98.7670    15.7580 h1         1 OCS       0.055700
     14 HB2         70.9200    95.7870    15.1190 h1         1 OCS       0.064700
     15 HB3         69.8260    97.0220    14.4880 h1         1 OCS       0.064700
@<TRIPOS>BOND
     1     1     2 1   
     2     1    11 1   
     3     1    12 1   
     4     2     3 1   
     5     2     5 1   
     6     2    13 1   
     7     3     4 1   
     8     3    14 1   
     9     3    15 1   
    10     4     8 1   
    11     4     9 1   
    12     4    10 1   
    13     5     6 1   
    14     5     7 1   
@<TRIPOS>SUBSTRUCTURE
     1 OCS         1 TEMP              0 ****  ****    0 ROOT
