@<TRIPOS>MOLECULE
OCS
   15    14     1     0     0
SMALL
No Charge or Current Charge


@<TRIPOS>ATOM
      1 N           72.3970    97.4730    16.7940 n8         1 OCS      -1.032200
      2 CA          71.0740    97.7120    16.1310 c3         1 OCS       0.062500
      3 CB          70.9460    96.7170    14.9490 c3         1 OCS      -0.342400
      4 SG          71.9100    97.1430    13.4750 s6         1 OCS       1.317600
      5 C           69.7890    97.6790    17.0770 c          1 OCS       0.709000
      6 O           69.5520    96.6590    17.7160 o          1 OCS      -0.760500
      7 OXT         69.1150    98.6960    17.1830 o          1 OCS      -0.760500
      8 OD1         71.3990    98.4630    13.0790 o          1 OCS      -0.724200
      9 OD2         73.3040    97.1410    13.9470 o          1 OCS      -0.724200
     10 OD3         71.5890    96.0620    12.5320 o          1 OCS      -0.724200
     11 H           72.3610    96.5560    17.2540 hn         1 OCS       0.396500
     12 HN2         73.0860    97.3390    16.0400 hn         1 OCS       0.396500
     13 HA          71.1000    98.7280    15.7100 h1         1 OCS       0.055700
     14 HB2         71.2320    95.7030    15.2480 h1         1 OCS       0.064700
     15 HB3         69.9060    96.6970    14.6060 h1         1 OCS       0.064700
@<TRIPOS>BOND
     1     1     2 1   
     2     1    11 1   
     3     1    12 1   
     4     2     3 1   
     5     2     5 1   
     6     2    13 1   
     7     3     4 1   
     8     3    14 1   
     9     3    15 1   
    10     4     8 1   
    11     4     9 1   
    12     4    10 1   
    13     5     6 1   
    14     5     7 1   
@<TRIPOS>SUBSTRUCTURE
     1 OCS         1 TEMP              0 ****  ****    0 ROOT
