@<TRIPOS>MOLECULE
OCT
   26    25     1     0     0
SMALL
No Charge or Current Charge


@<TRIPOS>ATOM
      1 C1          -0.2640    -0.0060     4.5120 c3         1 OCT      -0.088600
      2 C2           0.5420    -0.0070     3.1990 c3         1 OCT      -0.074900
      3 C3          -0.3520    -0.0140     1.9400 c3         1 OCT      -0.075400
      4 C4           0.4560    -0.0150     0.6240 c3         1 OCT      -0.074400
      5 C5          -0.4390    -0.0220    -0.6350 c3         1 OCT      -0.074400
      6 C6           0.3700    -0.0230    -1.9510 c3         1 OCT      -0.075400
      7 C7          -0.5250    -0.0300    -3.2090 c3         1 OCT      -0.074900
      8 C8           0.2810    -0.0310    -4.5230 c3         1 OCT      -0.088600
      9 H11         -0.8980    -0.8980     4.5790 hc         1 OCT       0.031367
     10 H12          0.4120    -0.0000     5.3760 hc         1 OCT       0.031367
     11 H13         -0.9050     0.8820     4.5740 hc         1 OCT       0.031367
     12 H21          1.1920     0.8770     3.1790 hc         1 OCT       0.036700
     13 H22          1.1980    -0.8860     3.1850 hc         1 OCT       0.036700
     14 H31         -1.0010    -0.8980     1.9650 hc         1 OCT       0.036700
     15 H32         -1.0080     0.8660     1.9600 hc         1 OCT       0.036700
     16 H41          1.1050     0.8690     0.6000 hc         1 OCT       0.036700
     17 H42          1.1120    -0.8950     0.6050 hc         1 OCT       0.036700
     18 H51         -1.0880    -0.9060    -0.6100 hc         1 OCT       0.036700
     19 H52         -1.0940     0.8580    -0.6150 hc         1 OCT       0.036700
     20 H61          1.0190     0.8610    -1.9750 hc         1 OCT       0.036700
     21 H62          1.0250    -0.9030    -1.9700 hc         1 OCT       0.036700
     22 H71         -1.1740    -0.9140    -3.1890 hc         1 OCT       0.036700
     23 H72         -1.1800     0.8490    -3.1950 hc         1 OCT       0.036700
     24 H81         -0.3950    -0.0360    -5.3860 hc         1 OCT       0.031367
     25 H82          0.9160     0.8600    -4.5890 hc         1 OCT       0.031367
     26 H83          0.9220    -0.9190    -4.5840 hc         1 OCT       0.031367
@<TRIPOS>BOND
     1     1     2 1   
     2     1     9 1   
     3     1    10 1   
     4     1    11 1   
     5     2     3 1   
     6     2    12 1   
     7     2    13 1   
     8     3     4 1   
     9     3    14 1   
    10     3    15 1   
    11     4     5 1   
    12     4    16 1   
    13     4    17 1   
    14     5     6 1   
    15     5    18 1   
    16     5    19 1   
    17     6     7 1   
    18     6    20 1   
    19     6    21 1   
    20     7     8 1   
    21     7    22 1   
    22     7    23 1   
    23     8    24 1   
    24     8    25 1   
    25     8    26 1   
@<TRIPOS>SUBSTRUCTURE
     1 OCT         1 TEMP              0 ****  ****    0 ROOT
