@<TRIPOS>MOLECULE
OCT
   26    25     1     0     0
SMALL
abcg2


@<TRIPOS>ATOM
      1 C1          -0.2590    -0.0080     4.4530 c3         1 OCT      -0.088600
      2 C2           0.5450    -0.0070     3.1600 c3         1 OCT      -0.074900
      3 C3          -0.3380    -0.0130     1.9180 c3         1 OCT      -0.075400
      4 C4           0.4510    -0.0140     0.6150 c3         1 OCT      -0.074400
      5 C5          -0.4340    -0.0200    -0.6250 c3         1 OCT      -0.074400
      6 C6           0.3550    -0.0190    -1.9280 c3         1 OCT      -0.075400
      7 C7          -0.5270    -0.0300    -3.1710 c3         1 OCT      -0.074900
      8 C8           0.2770    -0.0350    -4.4640 c3         1 OCT      -0.088600
      9 H11         -0.8980    -0.8920     4.5180 hc         1 OCT       0.031367
     10 H12          0.3870    -0.0030     5.3320 hc         1 OCT       0.031367
     11 H13         -0.9060     0.8690     4.5140 hc         1 OCT       0.031367
     12 H21          1.1990     0.8690     3.1350 hc         1 OCT       0.036700
     13 H22          1.2060    -0.8790     3.1380 hc         1 OCT       0.036700
     14 H31         -0.9950    -0.8900     1.9460 hc         1 OCT       0.036700
     15 H32         -1.0000     0.8600     1.9420 hc         1 OCT       0.036700
     16 H41          1.1080     0.8630     0.5880 hc         1 OCT       0.036700
     17 H42          1.1130    -0.8880     0.5920 hc         1 OCT       0.036700
     18 H51         -1.0900    -0.8970    -0.5980 hc         1 OCT       0.036700
     19 H52         -1.0960     0.8530    -0.6020 hc         1 OCT       0.036700
     20 H61          1.0090     0.8600    -1.9560 hc         1 OCT       0.036700
     21 H62          1.0210    -0.8900    -1.9510 hc         1 OCT       0.036700
     22 H71         -1.1830    -0.9050    -3.1420 hc         1 OCT       0.036700
     23 H72         -1.1870     0.8430    -3.1520 hc         1 OCT       0.036700
     24 H81         -0.3690    -0.0410    -5.3420 hc         1 OCT       0.031367
     25 H82          0.9180     0.8460    -4.5310 hc         1 OCT       0.031367
     26 H83          0.9210    -0.9150    -4.5210 hc         1 OCT       0.031367
@<TRIPOS>BOND
     1     1     2 1   
     2     1     9 1   
     3     1    10 1   
     4     1    11 1   
     5     2     3 1   
     6     2    12 1   
     7     2    13 1   
     8     3     4 1   
     9     3    14 1   
    10     3    15 1   
    11     4     5 1   
    12     4    16 1   
    13     4    17 1   
    14     5     6 1   
    15     5    18 1   
    16     5    19 1   
    17     6     7 1   
    18     6    20 1   
    19     6    21 1   
    20     7     8 1   
    21     7    22 1   
    22     7    23 1   
    23     8    24 1   
    24     8    25 1   
    25     8    26 1   
@<TRIPOS>SUBSTRUCTURE
     1 OCT         1 TEMP              0 ****  ****    0 ROOT
