@<TRIPOS>MOLECULE
OCU
   58    61     1     0     0
SMALL
No Charge or Current Charge


@<TRIPOS>ATOM
      1 C4          13.1950   -40.0700    27.3830 ca         1 OCU       0.287000
      2 C5          13.7150   -38.9210    26.7670 ca         1 OCU      -0.133000
      3 C6          14.7700   -38.2110    27.3680 ca         1 OCU      -0.084000
      4 N1          16.7350   -41.4430    30.2990 n3         1 OCU      -0.728500
      5 C7          15.3110   -38.6500    28.5890 ca         1 OCU      -0.070000
      6 C8          16.2690   -42.6690    29.5890 c6         1 OCU       0.196800
      7 C9          17.4280   -43.6700    29.3100 c6         1 OCU       0.199800
      8 C10         21.2910   -43.5380    28.8940 ca         1 OCU      -0.279500
      9 C11         22.2040   -42.6950    28.2210 ca         1 OCU      -0.047000
     10 C12         23.3490   -42.2290    28.8820 ca         1 OCU       0.104100
     11 C13         23.5880   -42.5980    30.2190 ca         1 OCU       0.100100
     12 C14         22.6810   -43.4340    30.8890 ca         1 OCU      -0.182000
     13 O1          16.1610   -39.2670    31.4700 o          1 OCU      -0.533000
     14 C3          13.7350   -40.5110    28.6040 ca         1 OCU      -0.097000
     15 C2          14.8000   -39.8080    29.2140 ca         1 OCU      -0.256500
     16 O           19.4310   -45.4370    28.5000 o          1 OCU      -0.535000
     17 N           18.5670   -43.0360    28.5840 n3         1 OCU      -0.729500
     18 C1          17.8390   -40.8030    29.5270 c6         1 OCU       0.196800
     19 C           19.0160   -41.7870    29.2620 c6         1 OCU       0.199800
     20 O7          19.9240   -43.8200    26.5930 o          1 OCU      -0.535000
     21 C15         21.5160   -43.9300    30.2540 cp         1 OCU       0.076000
     22 C16         20.6320   -44.8100    31.0730 cp         1 OCU      -0.083000
     23 C21         20.7370   -46.2200    30.9890 ca         1 OCU      -0.050000
     24 C20         19.9440   -47.0570    31.7960 ca         1 OCU      -0.160000
     25 C19         19.0480   -46.4940    32.7190 ca         1 OCU       0.058100
     26 O6          18.2740   -47.3010    33.5100 oh         1 OCU      -0.556100
     27 C18         18.9580   -45.0920    32.8400 ca         1 OCU       0.113100
     28 O5          18.1010   -44.5530    33.7540 oh         1 OCU      -0.532100
     29 C17         19.7500   -44.2600    32.0340 ca         1 OCU      -0.116000
     30 O4          24.7060   -42.1390    30.8640 oh         1 OCU      -0.548100
     31 O3          24.2340   -41.4120    28.2360 oh         1 OCU      -0.528100
     32 S1          15.4940   -40.3810    30.7860 sy         1 OCU       1.155600
     33 O2          14.5080   -41.2080    31.4910 o          1 OCU      -0.533000
     34 N2          12.1630   -40.7560    26.7920 nv         1 OCU      -1.082000
     35 H7          13.3030   -38.5730    25.8240 ha         1 OCU       0.116000
     36 H8          15.1680   -37.3200    26.8880 ha         1 OCU       0.117000
     37 H9          16.1270   -38.0890    29.0430 ha         1 OCU       0.136000
     38 H10         15.5030   -43.1950    30.1760 h1         1 OCU       0.064700
     39 H11         15.8100   -42.4030    28.6250 h1         1 OCU       0.064700
     40 H12         17.7660   -44.0850    30.2690 h1         1 OCU       0.067200
     41 H13         17.0160   -44.5070    28.7270 h1         1 OCU       0.067200
     42 H14         22.0290   -42.3940    27.1900 ha         1 OCU       0.161000
     43 H17         22.8710   -43.7160    31.9210 ha         1 OCU       0.123000
     44 H4          13.3260   -41.4000    29.0770 ha         1 OCU       0.132000
     45 H2          18.2400   -39.9320    30.0660 h1         1 OCU       0.064700
     46 H3          17.4710   -40.4410    28.5560 h1         1 OCU       0.064700
     47 H           19.4920   -42.0140    30.2250 h1         1 OCU       0.067200
     48 H1          19.7620   -41.2610    28.6480 h1         1 OCU       0.067200
     49 H22         21.4350   -46.6630    30.2820 ha         1 OCU       0.134000
     50 H21         20.0360   -48.1360    31.7000 ha         1 OCU       0.120000
     51 H20         18.4700   -48.2400    33.2940 ho         1 OCU       0.478000
     52 H19         17.6640   -45.3150    34.1970 ho         1 OCU       0.484000
     53 H18         19.6810   -43.1820    32.1550 ha         1 OCU       0.134000
     54 H16         24.7100   -42.4950    31.7800 ho         1 OCU       0.484000
     55 H15         24.9470   -41.2130    28.8840 ho         1 OCU       0.484000
     56 H5          11.8630   -40.5130    25.8490 hn         1 OCU       0.458000
     57 H6          11.8690   -41.6590    27.1610 hn         1 OCU       0.458000
     58 S           19.7880   -44.0960    28.0280 sy         1 OCU       1.161600
@<TRIPOS>BOND
     1     1     2 ar  
     2     1    14 ar  
     3     1    34 1   
     4     2     3 ar  
     5     2    35 1   
     6     3     5 ar  
     7     3    36 1   
     8     4     6 1   
     9     4    18 1   
    10     4    32 1   
    11     5    15 ar  
    12     5    37 1   
    13     6     7 1   
    14     6    38 1   
    15     6    39 1   
    16     7    17 1   
    17     7    40 1   
    18     7    41 1   
    19     8     9 ar  
    20     8    21 ar  
    21     8    58 1   
    22     9    10 ar  
    23     9    42 1   
    24    10    11 ar  
    25    10    31 1   
    26    11    12 ar  
    27    11    30 1   
    28    12    21 ar  
    29    12    43 1   
    30    13    32 2   
    31    14    15 ar  
    32    14    44 1   
    33    15    32 1   
    34    16    58 2   
    35    17    19 1   
    36    17    58 1   
    37    18    19 1   
    38    18    45 1   
    39    18    46 1   
    40    19    47 1   
    41    19    48 1   
    42    20    58 2   
    43    21    22 1   
    44    22    23 ar  
    45    22    29 ar  
    46    23    24 ar  
    47    23    49 1   
    48    24    25 ar  
    49    24    50 1   
    50    25    26 1   
    51    25    27 ar  
    52    26    51 1   
    53    27    28 1   
    54    27    29 ar  
    55    28    52 1   
    56    29    53 1   
    57    30    54 1   
    58    31    55 1   
    59    32    33 2   
    60    34    56 1   
    61    34    57 1   
@<TRIPOS>SUBSTRUCTURE
     1 OCU         1 TEMP              0 ****  ****    0 ROOT
