@<TRIPOS>MOLECULE
OCU
   58    61     1     0     0
SMALL
abcg2


@<TRIPOS>ATOM
      1 C4          12.8150   -40.2960    27.7180 ca         1 OCU       0.287000
      2 C5          13.0960   -39.2390    26.8400 ca         1 OCU      -0.133000
      3 C6          14.1790   -38.4060    27.0520 ca         1 OCU      -0.084000
      4 N1          17.0010   -40.9900    29.7820 n3         1 OCU      -0.728500
      5 C7          15.0240   -38.5880    28.1390 ca         1 OCU      -0.070000
      6 C8          16.6400   -42.3900    29.5880 c6         1 OCU       0.196800
      7 C9          17.9090   -43.2200    29.6550 c6         1 OCU       0.199800
      8 C10         21.4300   -43.5420    29.1530 ca         1 OCU      -0.279500
      9 C11         22.4330   -42.6950    28.6770 ca         1 OCU      -0.047000
     10 C12         23.5240   -42.3700    29.4570 ca         1 OCU       0.104100
     11 C13         23.6080   -42.8940    30.7530 ca         1 OCU       0.100100
     12 C14         22.6130   -43.7380    31.2140 ca         1 OCU      -0.182000
     13 O1          16.5380   -38.7070    30.6670 o          1 OCU      -0.533000
     14 C3          13.6650   -40.4870    28.8150 ca         1 OCU      -0.097000
     15 C2          14.7450   -39.6380    29.0010 ca         1 OCU      -0.256500
     16 O           19.5070   -45.1010    28.1360 o          1 OCU      -0.535000
     17 N           18.8350   -42.7460    28.6320 n3         1 OCU      -0.729500
     18 C1          17.9050   -40.5040    28.7470 c6         1 OCU       0.196800
     19 C           19.1750   -41.3350    28.7740 c6         1 OCU       0.199800
     20 O7          20.4270   -43.2240    26.7740 o          1 OCU      -0.535000
     21 C15         21.5070   -44.0860    30.4390 cp         1 OCU       0.076000
     22 C16         20.5370   -45.0180    31.0650 cp         1 OCU      -0.083000
     23 C21         20.4200   -46.3350    30.6450 ca         1 OCU      -0.050000
     24 C20         19.5860   -47.2130    31.3220 ca         1 OCU      -0.160000
     25 C19         18.8570   -46.7920    32.4230 ca         1 OCU       0.058100
     26 O6          18.0250   -47.5840    33.1360 oh         1 OCU      -0.556100
     27 C18         18.9740   -45.4660    32.8610 ca         1 OCU       0.113100
     28 O5          18.2900   -45.0070    33.9300 oh         1 OCU      -0.532100
     29 C17         19.8200   -44.6010    32.1860 ca         1 OCU      -0.116000
     30 O4          24.6870   -42.5420    31.4710 oh         1 OCU      -0.548100
     31 O3          24.4690   -41.5560    28.9520 oh         1 OCU      -0.528100
     32 S1          15.8510   -39.9480    30.3520 sy         1 OCU       1.155600
     33 O2          15.1290   -40.6520    31.3990 o          1 OCU      -0.533000
     34 N2          11.7080   -41.0850    27.5430 nv         1 OCU      -1.082000
     35 H7          12.4490   -39.0750    25.9860 ha         1 OCU       0.116000
     36 H8          14.3670   -37.5960    26.3590 ha         1 OCU       0.117000
     37 H9          15.8620   -37.9250    28.3000 ha         1 OCU       0.136000
     38 H10         15.9730   -42.7190    30.3810 h1         1 OCU       0.064700
     39 H11         16.1390   -42.5400    28.6250 h1         1 OCU       0.064700
     40 H12         18.3400   -43.1320    30.6560 h1         1 OCU       0.067200
     41 H13         17.6590   -44.2630    29.4780 h1         1 OCU       0.067200
     42 H14         22.3750   -42.2750    27.6820 ha         1 OCU       0.161000
     43 H17         22.7000   -44.1560    32.2110 ha         1 OCU       0.123000
     44 H4          13.4640   -41.2910    29.5130 ha         1 OCU       0.132000
     45 H2          18.1740   -39.4660    28.9360 h1         1 OCU       0.064700
     46 H3          17.4390   -40.5670    27.7570 h1         1 OCU       0.064700
     47 H           19.7110   -41.1530    29.7130 h1         1 OCU       0.067200
     48 H1          19.8090   -41.0160    27.9490 h1         1 OCU       0.067200
     49 H22         20.9890   -46.6910    29.7970 ha         1 OCU       0.134000
     50 H21         19.5060   -48.2430    30.9920 ha         1 OCU       0.120000
     51 H20         17.9810   -48.4710    32.7620 ho         1 OCU       0.478000
     52 H19         17.7420   -45.7060    34.3070 ho         1 OCU       0.484000
     53 H18         19.9090   -43.5800    32.5400 ha         1 OCU       0.134000
     54 H16         24.6660   -42.9320    32.3540 ho         1 OCU       0.484000
     55 H15         25.1730   -41.4060    29.5950 ho         1 OCU       0.484000
     56 H5          11.3170   -41.1150    26.6160 hn         1 OCU       0.458000
     57 H6          11.7200   -41.9880    27.9900 hn         1 OCU       0.458000
     58 S           20.0270   -43.7490    28.0710 sy         1 OCU       1.161600
@<TRIPOS>BOND
     1     1     2 ar  
     2     1    14 ar  
     3     1    34 1   
     4     2     3 ar  
     5     2    35 1   
     6     3     5 ar  
     7     3    36 1   
     8     4     6 1   
     9     4    18 1   
    10     4    32 1   
    11     5    15 ar  
    12     5    37 1   
    13     6     7 1   
    14     6    38 1   
    15     6    39 1   
    16     7    17 1   
    17     7    40 1   
    18     7    41 1   
    19     8     9 ar  
    20     8    21 ar  
    21     8    58 1   
    22     9    10 ar  
    23     9    42 1   
    24    10    11 ar  
    25    10    31 1   
    26    11    12 ar  
    27    11    30 1   
    28    12    21 ar  
    29    12    43 1   
    30    13    32 2   
    31    14    15 ar  
    32    14    44 1   
    33    15    32 1   
    34    16    58 2   
    35    17    19 1   
    36    17    58 1   
    37    18    19 1   
    38    18    45 1   
    39    18    46 1   
    40    19    47 1   
    41    19    48 1   
    42    20    58 2   
    43    21    22 1   
    44    22    23 ar  
    45    22    29 ar  
    46    23    24 ar  
    47    23    49 1   
    48    24    25 ar  
    49    24    50 1   
    50    25    26 1   
    51    25    27 ar  
    52    26    51 1   
    53    27    28 1   
    54    27    29 ar  
    55    28    52 1   
    56    29    53 1   
    57    30    54 1   
    58    31    55 1   
    59    32    33 2   
    60    34    56 1   
    61    34    57 1   
@<TRIPOS>SUBSTRUCTURE
     1 OCU         1 TEMP              0 ****  ****    0 ROOT
