@<TRIPOS>MOLECULE
OCX
   52    51     1     0     0
SMALL
No Charge or Current Charge


@<TRIPOS>ATOM
      1 C1           7.5620     4.9070     0.8110 c3         1 OCX      -0.088100
      2 C2           7.2430     3.4230     1.0710 c3         1 OCX      -0.075400
      3 C3           6.7570     2.6780    -0.1920 c3         1 OCX      -0.076400
      4 C4           6.4360     1.1900     0.0690 c3         1 OCX      -0.073400
      5 C5           5.9500     0.4440    -1.1920 c3         1 OCX      -0.040200
      6 C6           5.6390    -1.0110    -0.9090 c2         1 OCX      -0.218200
      7 C7           4.4240    -1.5740    -0.9970 c2         1 OCX      -0.215200
      8 C8           4.1120    -3.0290    -0.7180 c3         1 OCX      -0.011000
      9 C9           2.9270    -3.1570     0.2140 c2         1 OCX      -0.188200
     10 C10          1.6320    -3.1950    -0.1650 ce         1 OCX      -0.200000
     11 C11          0.5170    -3.3170     0.7780 ce         1 OCX      -0.116000
     12 C13         -0.7940    -3.3590     0.4070 cf         1 OCX      -0.304200
     13 C14         -1.9360    -3.4810     1.3600 c          1 OCX       0.563300
     14 O15         -1.7610    -3.5380     2.5710 o          1 OCX      -0.509100
     15 C16         -3.3490    -3.5170     0.7480 c3         1 OCX      -0.126200
     16 C17         -4.0750    -2.1880     0.8880 c2         1 OCX      -0.254200
     17 C18         -4.5250    -1.4400    -0.1310 c2         1 OCX      -0.168200
     18 C19         -5.2490    -0.1180     0.0100 c3         1 OCX      -0.056200
     19 C20         -4.4470     1.0550    -0.5930 c3         1 OCX      -0.049400
     20 C21         -5.1670     2.4200    -0.4620 c3         1 OCX      -0.205400
     21 C22         -4.3090     3.5340    -1.0880 c          1 OCX       0.718000
     22 O23         -3.4900     4.0990    -0.3780 o          1 OCX      -0.742500
     23 O24         -4.4500     3.7720    -2.2780 o          1 OCX      -0.742500
     24 H1           8.3540     5.0080     0.0590 hc         1 OCX       0.030700
     25 H1A          6.6730     5.4390     0.4510 hc         1 OCX       0.030700
     26 H1B          7.9020     5.3920     1.7330 hc         1 OCX       0.030700
     27 H2           8.1400     2.9280     1.4620 hc         1 OCX       0.038200
     28 H2A          6.4740     3.3550     1.8510 hc         1 OCX       0.038200
     29 H3           5.8600     3.1770    -0.5820 hc         1 OCX       0.036200
     30 H3A          7.5270     2.7500    -0.9710 hc         1 OCX       0.036200
     31 H4           7.3320     0.6910     0.4590 hc         1 OCX       0.041200
     32 H4A          5.6650     1.1170     0.8460 hc         1 OCX       0.041200
     33 H5           5.0620     0.9540    -1.5870 hc         1 OCX       0.042200
     34 H5A          6.7200     0.5120    -1.9710 hc         1 OCX       0.042200
     35 H6           6.5060    -1.6080    -0.6190 ha         1 OCX       0.164000
     36 H7           3.5570    -0.9780    -1.2900 ha         1 OCX       0.172000
     37 H8           3.8990    -3.5460    -1.6620 hc         1 OCX       0.050200
     38 H8A          4.9840    -3.5350    -0.2850 hc         1 OCX       0.050200
     39 H9           3.1980    -3.2160     1.2700 ha         1 OCX       0.176000
     40 H10          1.3740    -3.1320    -1.2240 ha         1 OCX       0.170000
     41 H11          0.7710    -3.3770     1.8400 ha         1 OCX       0.192000
     42 H13         -1.0470    -3.2970    -0.6500 ha         1 OCX       0.175000
     43 H16         -3.2770    -3.7780    -0.3140 hc         1 OCX       0.053700
     44 H16A        -3.9280    -4.2900     1.2670 hc         1 OCX       0.053700
     45 H17         -4.2170    -1.8570     1.9200 ha         1 OCX       0.174000
     46 H18         -4.3870    -1.7680    -1.1640 ha         1 OCX       0.156000
     47 H19         -6.2260    -0.1800    -0.4850 hc         1 OCX       0.033700
     48 H19A        -5.4500     0.0950     1.0680 hc         1 OCX       0.033700
     49 H20         -3.4700     1.1120    -0.0950 hc         1 OCX       0.043200
     50 H20A        -4.2520     0.8490    -1.6530 hc         1 OCX       0.043200
     51 H21         -6.1140     2.3130    -1.0070 hc         1 OCX       0.014700
     52 H21A        -5.2940     2.5910     0.6140 hc         1 OCX       0.014700
@<TRIPOS>BOND
     1     1     2 1   
     2     1    24 1   
     3     1    25 1   
     4     1    26 1   
     5     2     3 1   
     6     2    27 1   
     7     2    28 1   
     8     3     4 1   
     9     3    29 1   
    10     3    30 1   
    11     4     5 1   
    12     4    31 1   
    13     4    32 1   
    14     5     6 1   
    15     5    33 1   
    16     5    34 1   
    17     6     7 2   
    18     6    35 1   
    19     7     8 1   
    20     7    36 1   
    21     8     9 1   
    22     8    37 1   
    23     8    38 1   
    24     9    10 2   
    25     9    39 1   
    26    10    11 1   
    27    10    40 1   
    28    11    12 2   
    29    11    41 1   
    30    12    13 1   
    31    12    42 1   
    32    13    14 2   
    33    13    15 1   
    34    15    16 1   
    35    15    43 1   
    36    15    44 1   
    37    16    17 2   
    38    16    45 1   
    39    17    18 1   
    40    17    46 1   
    41    18    19 1   
    42    18    47 1   
    43    18    48 1   
    44    19    20 1   
    45    19    49 1   
    46    19    50 1   
    47    20    21 1   
    48    20    51 1   
    49    20    52 1   
    50    21    22 1   
    51    21    23 1   
@<TRIPOS>SUBSTRUCTURE
     1 OCX         1 TEMP              0 ****  ****    0 ROOT
