@<TRIPOS>MOLECULE
OCX
   52    51     1     0     0
SMALL
bcc


@<TRIPOS>ATOM
      1 C1           9.0660     4.4800     0.0090 c3         1 OCX      -0.088100
      2 C2           8.2930     3.3240     0.6290 c3         1 OCX      -0.075400
      3 C3           8.1520     2.1370    -0.3160 c3         1 OCX      -0.076400
      4 C4           7.3580     0.9830     0.2830 c3         1 OCX      -0.073400
      5 C5           7.2340    -0.2050    -0.6720 c3         1 OCX      -0.040200
      6 C6           6.4540    -1.3350    -0.0810 c2         1 OCX      -0.168200
      7 C7           5.3320    -1.8350    -0.5890 c2         1 OCX      -0.165200
      8 C8           4.5300    -2.9490     0.0250 c3         1 OCX      -0.011000
      9 C9           3.1910    -2.4460     0.4580 c2         1 OCX      -0.138200
     10 C10          2.0250    -2.7990    -0.0970 ce         1 OCX      -0.150000
     11 C11          0.7610    -2.2500     0.3330 ce         1 OCX      -0.066000
     12 C13         -0.4250    -2.5720    -0.2060 cf         1 OCX      -0.254200
     13 C14         -1.6890    -1.9810     0.2610 c          1 OCX       0.563300
     14 O15         -1.7410    -1.1710     1.1670 o          1 OCX      -0.509100
     15 C16         -2.9290    -2.4460    -0.4700 c3         1 OCX      -0.126200
     16 C17         -4.2050    -1.8990     0.0800 c2         1 OCX      -0.204200
     17 C18         -5.0620    -1.1560    -0.6120 c2         1 OCX      -0.118200
     18 C19         -6.3470    -0.6050    -0.0810 c3         1 OCX      -0.056200
     19 C20         -6.3890     0.9240    -0.1210 c3         1 OCX      -0.049400
     20 C21         -7.7100     1.4800     0.3840 c3         1 OCX      -0.205400
     21 C22         -7.8560     3.0110     0.3430 c          1 OCX       0.928600
     22 O23         -8.9280     3.4680     0.7940 o          1 OCX      -0.847800
     23 O24         -6.9140     3.6750    -0.1320 o          1 OCX      -0.847800
     24 H1          10.0790     4.1760    -0.2630 hc         1 OCX       0.030700
     25 H1A          8.5750     4.8370    -0.8970 hc         1 OCX       0.030700
     26 H1B          9.1490     5.3240     0.6960 hc         1 OCX       0.030700
     27 H2           8.7900     2.9990     1.5480 hc         1 OCX       0.038200
     28 H2A          7.2980     3.6680     0.9290 hc         1 OCX       0.038200
     29 H3           7.6670     2.4650    -1.2420 hc         1 OCX       0.036200
     30 H3A          9.1480     1.7830    -0.6040 hc         1 OCX       0.036200
     31 H4           7.8350     0.6550     1.2130 hc         1 OCX       0.041200
     32 H4A          6.3570     1.3310     0.5580 hc         1 OCX       0.041200
     33 H5           6.7670     0.1190    -1.6070 hc         1 OCX       0.042200
     34 H5A          8.2400    -0.5530    -0.9310 hc         1 OCX       0.042200
     35 H6           6.8470    -1.7560     0.8440 ha         1 OCX       0.114000
     36 H7           4.9280    -1.4150    -1.5080 ha         1 OCX       0.122000
     37 H8           4.4040    -3.7620    -0.6950 hc         1 OCX       0.050200
     38 H8A          5.0680    -3.3550     0.8870 hc         1 OCX       0.050200
     39 H9           3.1930    -1.7160     1.2630 ha         1 OCX       0.126000
     40 H10          2.0100    -3.5220    -0.9080 ha         1 OCX       0.120000
     41 H11          0.7910    -1.5290     1.1450 ha         1 OCX       0.142000
     42 H13         -0.4790    -3.2900    -1.0190 ha         1 OCX       0.125000
     43 H16         -2.8110    -2.1880    -1.5290 hc         1 OCX       0.053700
     44 H16A        -2.9310    -3.5430    -0.4440 hc         1 OCX       0.053700
     45 H17         -4.4370    -2.1540     1.1100 ha         1 OCX       0.124000
     46 H18         -4.8240    -0.9010    -1.6440 ha         1 OCX       0.106000
     47 H19         -7.1810    -0.9940    -0.6770 hc         1 OCX       0.033700
     48 H19A        -6.5090    -0.9590     0.9420 hc         1 OCX       0.033700
     49 H20         -5.5620     1.3200     0.4740 hc         1 OCX       0.043200
     50 H20A        -6.2120     1.2610    -1.1470 hc         1 OCX       0.043200
     51 H21         -8.5350     1.0420    -0.1920 hc         1 OCX       0.014700
     52 H21A        -7.8810     1.1470     1.4140 hc         1 OCX       0.014700
@<TRIPOS>BOND
     1     1     2 1   
     2     1    24 1   
     3     1    25 1   
     4     1    26 1   
     5     2     3 1   
     6     2    27 1   
     7     2    28 1   
     8     3     4 1   
     9     3    29 1   
    10     3    30 1   
    11     4     5 1   
    12     4    31 1   
    13     4    32 1   
    14     5     6 1   
    15     5    33 1   
    16     5    34 1   
    17     6     7 2   
    18     6    35 1   
    19     7     8 1   
    20     7    36 1   
    21     8     9 1   
    22     8    37 1   
    23     8    38 1   
    24     9    10 2   
    25     9    39 1   
    26    10    11 1   
    27    10    40 1   
    28    11    12 2   
    29    11    41 1   
    30    12    13 1   
    31    12    42 1   
    32    13    14 2   
    33    13    15 1   
    34    15    16 1   
    35    15    43 1   
    36    15    44 1   
    37    16    17 2   
    38    16    45 1   
    39    17    18 1   
    40    17    46 1   
    41    18    19 1   
    42    18    47 1   
    43    18    48 1   
    44    19    20 1   
    45    19    49 1   
    46    19    50 1   
    47    20    21 1   
    48    20    51 1   
    49    20    52 1   
    50    21    22 1   
    51    21    23 1   
@<TRIPOS>SUBSTRUCTURE
     1 OCX         1 TEMP              0 ****  ****    0 ROOT
