@<TRIPOS>MOLECULE
OCY
   20    19     1     0     0
SMALL
bcc


@<TRIPOS>ATOM
      1 N           49.7040    46.4460    61.7320 n8         1 OCY      -0.897800
      2 CA          49.4920    47.2020    60.5110 c3         1 OCY       0.018500
      3 CB          50.5160    46.8300    59.4490 c3         1 OCY       0.059700
      4 SG          50.3550    45.1320    58.8170 ss         1 OCY      -0.296200
      5 CD          51.4820    44.2130    59.9050 c3         1 OCY      -0.011300
      6 CE          52.9450    44.3350    59.5440 c3         1 OCY       0.142400
      7 OZ          53.1610    43.7750    58.2710 oh         1 OCY      -0.584800
      8 C           48.0400    47.0370    59.9890 c          1 OCY       0.940600
      9 O           47.8420    47.3640    58.8030 o          1 OCY      -0.830800
     10 OXT         47.1900    46.6380    60.8090 o          1 OCY      -0.830800
     11 H           48.8460    46.4640    62.2680 hn         1 OCY       0.329800
     12 H2          50.4220    46.8820    62.2940 hn         1 OCY       0.329800
     13 HA          49.6180    48.2880    60.6750 h1         1 OCY      -0.002300
     14 HB2         50.4090    47.4870    58.5880 h1         1 OCY       0.043200
     15 HB3         51.5340    46.9640    59.8220 h1         1 OCY       0.043200
     16 HD2         51.3170    44.5510    60.9270 h1         1 OCY       0.078200
     17 HD3         51.1700    43.1670    59.8550 h1         1 OCY       0.078200
     18 HE2         53.2480    45.3890    59.5840 h1         1 OCY       0.004700
     19 HE3         53.5260    43.8130    60.3180 h1         1 OCY       0.004700
     20 HZ          54.0890    43.8890    58.0470 ho         1 OCY       0.383000
@<TRIPOS>BOND
     1     1     2 1   
     2     1    11 1   
     3     1    12 1   
     4     2     3 1   
     5     2     8 1   
     6     2    13 1   
     7     3     4 1   
     8     3    14 1   
     9     3    15 1   
    10     4     5 1   
    11     5     6 1   
    12     5    16 1   
    13     5    17 1   
    14     6     7 1   
    15     6    18 1   
    16     6    19 1   
    17     7    20 1   
    18     8     9 1   
    19     8    10 1   
@<TRIPOS>SUBSTRUCTURE
     1 OCY         1 TEMP              0 ****  ****    0 ROOT
