@<TRIPOS>MOLECULE
OCY
   20    19     1     0     0
SMALL
No Charge or Current Charge


@<TRIPOS>ATOM
      1 N           49.6720    46.4810    61.8380 n8         1 OCY      -0.897800
      2 CA          49.4250    47.1680    60.5070 c3         1 OCY       0.018500
      3 CB          50.4920    46.7630    59.4530 c3         1 OCY       0.059700
      4 SG          50.2920    45.0180    58.8480 ss         1 OCY      -0.296200
      5 CD          51.4870    44.1150    59.9470 c3         1 OCY      -0.011300
      6 CE          52.9590    44.3380    59.5340 c3         1 OCY       0.142400
      7 OZ          53.2160    43.7580    58.2510 oh         1 OCY      -0.584800
      8 C           47.9650    47.1030    59.8690 c          1 OCY       0.940600
      9 O           47.6970    47.8680    58.9460 o          1 OCY      -0.830800
     10 OXT         47.1100    46.3830    60.3820 o          1 OCY      -0.830800
     11 H           48.9740    46.8030    62.5160 hn         1 OCY       0.329800
     12 H2          50.5700    46.7890    62.2220 hn         1 OCY       0.329800
     13 HA          49.5940    48.2320    60.7170 h1         1 OCY      -0.002300
     14 HB2         50.4000    47.4290    58.5860 h1         1 OCY       0.043200
     15 HB3         51.4990    46.8980    59.8660 h1         1 OCY       0.043200
     16 HD2         51.3460    44.4490    60.9820 h1         1 OCY       0.078200
     17 HD3         51.2630    43.0420    59.9080 h1         1 OCY       0.078200
     18 HE2         53.1820    45.4120    59.5170 h1         1 OCY       0.004700
     19 HE3         53.6100    43.8740    60.2860 h1         1 OCY       0.004700
     20 HZ          54.1530    43.9450    58.0340 ho         1 OCY       0.383000
@<TRIPOS>BOND
     1     1     2 1   
     2     1    11 1   
     3     1    12 1   
     4     2     3 1   
     5     2     8 1   
     6     2    13 1   
     7     3     4 1   
     8     3    14 1   
     9     3    15 1   
    10     4     5 1   
    11     5     6 1   
    12     5    16 1   
    13     5    17 1   
    14     6     7 1   
    15     6    18 1   
    16     6    19 1   
    17     7    20 1   
    18     8     9 1   
    19     8    10 1   
@<TRIPOS>SUBSTRUCTURE
     1 OCY         1 TEMP              0 ****  ****    0 ROOT
