@<TRIPOS>MOLECULE
OCZ
   30    32     1     0     0
SMALL
abcg2


@<TRIPOS>ATOM
      1 NAQ         -2.7960    22.4340    -8.7210 nt         1 OCZ      -0.614000
      2 OAP         -1.2970    23.7820    -9.7390 o          1 OCZ      -0.584100
      3 CAO         -2.4560    23.3990    -9.5960 c          1 OCZ       0.592100
      4 NAG         -2.8530    23.7400   -12.7700 na         1 OCZ      -0.220700
      5 CAJ         -3.4130    26.9790   -11.1040 c6         1 OCZ      -0.000200
      6 CAD         -2.0830    24.2150   -15.1160 ca         1 OCZ      -0.121000
      7 CAC         -1.7980    25.2520   -15.9920 ca         1 OCZ      -0.084000
      8 CAE         -2.5070    24.5410   -13.8310 ca         1 OCZ      -0.034200
      9 CAF         -2.6550    25.8930   -13.4080 ca         1 OCZ      -0.083800
     10 CAA         -2.3650    26.9280   -14.3050 ca         1 OCZ      -0.050000
     11 CAH         -3.0990    25.8570   -12.0440 cc         1 OCZ      -0.111400
     12 CAI         -3.2070    24.5350   -11.6990 cd         1 OCZ      -0.046300
     13 CAB         -1.9420    26.5820   -15.5740 ca         1 OCZ       0.095000
     14 CAM         -3.4800    26.4620    -9.6600 c6         1 OCZ      -0.077400
     15 CAK         -3.6310    24.0070   -10.3730 c6         1 OCZ      -0.081500
     16 CAL         -4.2770    25.1600    -9.5600 c6         1 OCZ      -0.058400
     17 HAL1        -4.3820    24.8520    -8.5180 hc         1 OCZ       0.046200
     18 HAL2        -5.2850    25.3200    -9.9510 hc         1 OCZ       0.046200
     19 HAM1        -3.9350    27.2170    -9.0160 hc         1 OCZ       0.052700
     20 HAM2        -2.4650    26.2940    -9.2890 hc         1 OCZ       0.052700
     21 HAK         -4.3790    23.2210   -10.5100 hc         1 OCZ       0.057700
     22 HAJ1        -4.3700    27.4400   -11.3760 hc         1 OCZ       0.049200
     23 HAJ2        -2.6610    27.7680   -11.1850 hc         1 OCZ       0.049200
     24 HAA         -2.4670    27.9660   -14.0170 ha         1 OCZ       0.130000
     25 HAC1        -1.4640    25.0400   -16.9980 ha         1 OCZ       0.127000
     26 HAD         -1.9750    23.1840   -15.4290 ha         1 OCZ       0.118000
     27 HAG         -2.8390    22.7330   -12.7690 hn         1 OCZ       0.351000
     28 HAQ1        -2.0920    22.0400    -8.1170 hn         1 OCZ       0.315000
     29 HAQ2        -3.7500    22.1380    -8.6010 hn         1 OCZ       0.315000
     30 CL          -1.5660    27.8620   -16.7250 cl         1 OCZ      -0.229000
@<TRIPOS>BOND
     1     1     3 1   
     2     1    28 1   
     3     1    29 1   
     4     2     3 2   
     5     3    15 1   
     6     4     8 1   
     7     4    12 1   
     8     4    27 1   
     9     5    11 1   
    10     5    14 1   
    11     5    22 1   
    12     5    23 1   
    13     6     7 ar  
    14     6     8 ar  
    15     6    26 1   
    16     7    13 ar  
    17     7    25 1   
    18     8     9 ar  
    19     9    10 ar  
    20     9    11 1   
    21    10    13 ar  
    22    10    24 1   
    23    11    12 2   
    24    12    15 1   
    25    13    30 1   
    26    14    16 1   
    27    14    19 1   
    28    14    20 1   
    29    15    16 1   
    30    15    21 1   
    31    16    17 1   
    32    16    18 1   
@<TRIPOS>SUBSTRUCTURE
     1 OCZ         1 TEMP              0 ****  ****    0 ROOT
