@<TRIPOS>MOLECULE
OCZ
   30    32     1     0     0
SMALL
No Charge or Current Charge


@<TRIPOS>ATOM
      1 NAQ         -2.8270    22.6150    -8.4590 nt         1 OCZ      -0.614000
      2 OAP         -1.2650    23.3930    -9.8430 o          1 OCZ      -0.584100
      3 CAO         -2.4480    23.3110    -9.5560 c          1 OCZ       0.592100
      4 NAG         -2.8050    23.6680   -12.8690 na         1 OCZ      -0.220700
      5 CAJ         -3.3660    26.9350   -11.1200 c6         1 OCZ      -0.000200
      6 CAD         -2.0970    24.2610   -15.1930 ca         1 OCZ      -0.121000
      7 CAC         -1.8270    25.3400   -16.0640 ca         1 OCZ      -0.084000
      8 CAE         -2.4900    24.5570   -13.8810 ca         1 OCZ      -0.034200
      9 CAF         -2.6130    25.8480   -13.4460 ca         1 OCZ      -0.083800
     10 CAA         -2.3550    26.9410   -14.2850 ca         1 OCZ      -0.050000
     11 CAH         -3.0280    25.8110   -12.0750 cc         1 OCZ      -0.111400
     12 CAI         -3.1400    24.4620   -11.7480 cd         1 OCZ      -0.046300
     13 CAB         -1.9570    26.6730   -15.6100 ca         1 OCZ       0.095000
     14 CAM         -3.5070    26.4200    -9.6620 c6         1 OCZ      -0.077400
     15 CAK         -3.5810    23.9650   -10.3850 c6         1 OCZ      -0.081500
     16 CAL         -4.3090    25.0940    -9.5960 c6         1 OCZ      -0.058400
     17 HAL1        -4.4750    24.8030    -8.5500 hc         1 OCZ       0.046200
     18 HAL2        -5.3060    25.2590   -10.0280 hc         1 OCZ       0.046200
     19 HAM1        -3.9940    27.1870    -9.0450 hc         1 OCZ       0.052700
     20 HAM2        -2.5080    26.2660    -9.2300 hc         1 OCZ       0.052700
     21 HAK         -4.3530    23.1890   -10.4760 hc         1 OCZ       0.057700
     22 HAJ1        -4.3100    27.4050   -11.4290 hc         1 OCZ       0.049200
     23 HAJ2        -2.6040    27.7240   -11.1610 hc         1 OCZ       0.049200
     24 HAA         -2.4580    27.9620   -13.9260 ha         1 OCZ       0.130000
     25 HAC1        -1.5190    25.1450   -17.0890 ha         1 OCZ       0.127000
     26 HAD         -2.0010    23.2320   -15.5330 ha         1 OCZ       0.118000
     27 HAG         -2.8000    22.6550   -12.9200 hn         1 OCZ       0.351000
     28 HAQ1        -2.1220    22.1720    -7.8890 hn         1 OCZ       0.315000
     29 HAQ2        -3.8040    22.5410    -8.2180 hn         1 OCZ       0.315000
     30 Cl          -1.6190    28.0060   -16.7080 cl         1 OCZ      -0.229000
@<TRIPOS>BOND
     1     1     3 1   
     2     1    28 1   
     3     1    29 1   
     4     2     3 2   
     5     3    15 1   
     6     4     8 1   
     7     4    12 1   
     8     4    27 1   
     9     5    11 1   
    10     5    14 1   
    11     5    22 1   
    12     5    23 1   
    13     6     7 ar  
    14     6     8 ar  
    15     6    26 1   
    16     7    13 ar  
    17     7    25 1   
    18     8     9 ar  
    19     9    10 ar  
    20     9    11 1   
    21    10    13 ar  
    22    10    24 1   
    23    11    12 2   
    24    12    15 1   
    25    13    30 1   
    26    14    16 1   
    27    14    19 1   
    28    14    20 1   
    29    15    16 1   
    30    15    21 1   
    31    16    17 1   
    32    16    18 1   
@<TRIPOS>SUBSTRUCTURE
     1 OCZ         1 TEMP              0 ****  ****    0 ROOT
