@<TRIPOS>MOLECULE
OD0
   19    19     1     0     0
SMALL
abcg2


@<TRIPOS>ATOM
      1 O1          22.2700    -2.0710    32.9490 oh         1 OD0      -0.721000
      2 C1          21.4810    -1.6000    31.8780 c6         1 OD0       0.167500
      3 C2          20.0230    -1.9050    32.0760 c2         1 OD0      -0.233200
      4 C3          19.0510    -1.0540    31.7720 c2         1 OD0      -0.235200
      5 C4          19.3050     0.3180    31.2410 c6         1 OD0       0.228500
      6 F1          18.4260     0.5610    30.1790 f          1 OD0      -0.255000
      7 C5          20.7270     0.4940    30.7520 c6         1 OD0       0.156300
      8 O2          20.9480     1.8630    30.5450 oh         1 OD0      -0.708000
      9 C6          21.6950    -0.0960    31.7770 c6         1 OD0       0.138300
     10 O3          22.9940     0.2290    31.3500 oh         1 OD0      -0.668000
     11 H1          22.3710    -3.0240    32.8610 ho         1 OD0       0.511000
     12 H2          21.8060    -2.0580    30.9320 h1         1 OD0       0.054700
     13 H3          19.7730    -2.8850    32.4710 ha         1 OD0       0.183000
     14 H4          18.0140    -1.3230    31.9390 ha         1 OD0       0.196000
     15 H5          19.0810     1.0690    32.0070 h1         1 OD0       0.078700
     16 H6          20.8370    -0.0740    29.8140 h1         1 OD0       0.054700
     17 H7          21.8660     1.9820    30.2760 ho         1 OD0       0.527000
     18 H8          21.4810     0.3470    32.7630 h1         1 OD0       0.059700
     19 H9          23.6140     0.0030    32.0490 ho         1 OD0       0.466000
@<TRIPOS>BOND
     1     1     2 1   
     2     1    11 1   
     3     2     3 1   
     4     2     9 1   
     5     2    12 1   
     6     3     4 2   
     7     3    13 1   
     8     4     5 1   
     9     4    14 1   
    10     5     6 1   
    11     5     7 1   
    12     5    15 1   
    13     7     8 1   
    14     7     9 1   
    15     7    16 1   
    16     8    17 1   
    17     9    10 1   
    18     9    18 1   
    19    10    19 1   
@<TRIPOS>SUBSTRUCTURE
     1 OD0         1 TEMP              0 ****  ****    0 ROOT
