@<TRIPOS>MOLECULE
OD0
   19    19     1     0     0
SMALL
No Charge or Current Charge


@<TRIPOS>ATOM
      1 O1          22.3280    -2.0680    32.9410 oh         1 OD0      -0.721000
      2 C1          21.5170    -1.5600    31.8750 c6         1 OD0       0.167500
      3 C2          20.0590    -1.9120    32.1240 c2         1 OD0      -0.233200
      4 C3          19.0420    -1.0850    31.8070 c2         1 OD0      -0.235200
      5 C4          19.2350     0.3030    31.2000 c6         1 OD0       0.228500
      6 F1          18.3560     0.4860    30.1120 f          1 OD0      -0.255000
      7 C5          20.6960     0.5450    30.6990 c6         1 OD0       0.156300
      8 O2          20.9740     1.9430    30.4780 oh         1 OD0      -0.708000
      9 C6          21.7050    -0.0180    31.7380 c6         1 OD0       0.138300
     10 O3          23.0600     0.2970    31.3590 oh         1 OD0      -0.668000
     11 H1          22.2380    -3.0490    32.9250 ho         1 OD0       0.511000
     12 H2          21.8180    -2.0260    30.9220 h1         1 OD0       0.054700
     13 H3          19.8570    -2.8930    32.5590 ha         1 OD0       0.183000
     14 H4          18.0060    -1.3790    31.9910 ha         1 OD0       0.196000
     15 H5          18.9790     1.0630    31.9530 h1         1 OD0       0.078700
     16 H6          20.8310    -0.0150    29.7610 h1         1 OD0       0.054700
     17 H7          21.9590     2.0030    30.5600 ho         1 OD0       0.527000
     18 H8          21.4780     0.4360    32.7150 h1         1 OD0       0.059700
     19 H9          23.6230    -0.2960    31.9100 ho         1 OD0       0.466000
@<TRIPOS>BOND
     1     1     2 1   
     2     1    11 1   
     3     2     3 1   
     4     2     9 1   
     5     2    12 1   
     6     3     4 2   
     7     3    13 1   
     8     4     5 1   
     9     4    14 1   
    10     5     6 1   
    11     5     7 1   
    12     5    15 1   
    13     7     8 1   
    14     7     9 1   
    15     7    16 1   
    16     8    17 1   
    17     9    10 1   
    18     9    18 1   
    19    10    19 1   
@<TRIPOS>SUBSTRUCTURE
     1 OD0         1 TEMP              0 ****  ****    0 ROOT
