@<TRIPOS>MOLECULE
OD1
   41    43     1     0     0
SMALL
No Charge or Current Charge


@<TRIPOS>ATOM
      1 C4          -2.7720     2.8310     0.3240 ca         1 OD1      -0.099000
      2 C14          3.4550     1.8060    -0.6040 c          1 OD1       0.642700
      3 C5          -1.9390     1.7280     0.0140 ca         1 OD1       0.030000
      4 C6          -2.5150     0.4340     0.1290 ca         1 OD1      -0.076800
      5 C11         -0.0200     3.1710    -0.8340 cc         1 OD1      -0.133000
      6 C7          -2.7890    -1.9410    -0.0170 cc         1 OD1      -0.137600
      7 C8          -1.9550    -0.8580    -0.2280 cd         1 OD1      -0.102200
      8 C9          -2.4450    -3.3330    -0.3800 c          1 OD1       0.643300
      9 C10         -0.5330     1.9730    -0.3910 cd         1 OD1      -0.151000
     10 C12          1.3900     3.1970    -0.9520 cc         1 OD1      -0.065000
     11 C13          1.9950     2.0340    -0.5500 cd         1 OD1      -0.287600
     12 N1          -3.3920    -4.2610    -0.1300 nt         1 OD1      -0.604000
     13 N2           3.8360     0.5660    -0.1500 ns         1 OD1      -0.504900
     14 C3          -4.0990     2.6480     0.7640 ca         1 OD1      -0.092000
     15 N3           6.8430    -3.1870     1.1240 n8         1 OD1      -0.995200
     16 C1          -3.8180     0.2610     0.5720 ca         1 OD1      -0.147000
     17 C2          -4.6270     1.3550     0.9000 ca         1 OD1      -0.081000
     18 S1          -4.3540    -1.4410     0.6710 ss         1 OD1       0.058400
     19 O1          -1.3820    -3.6690    -0.8770 o          1 OD1      -0.595100
     20 S2           0.7970     0.8640     0.0300 ss         1 OD1       0.229000
     21 O2           4.2590     2.6320    -1.0110 o          1 OD1      -0.597100
     22 C15          5.2210     0.0980    -0.1010 c3         1 OD1       0.106000
     23 C16          5.3220    -1.3180     0.4960 c3         1 OD1      -0.099400
     24 C17          6.7740    -1.8280     0.5560 c3         1 OD1       0.152800
     25 H1          -2.3890     3.8450     0.2600 ha         1 OD1       0.123000
     26 H2          -0.6200     4.0370    -1.0960 ha         1 OD1       0.141000
     27 H4          -0.9920    -0.9890    -0.7100 ha         1 OD1       0.231000
     28 H6           1.9240     4.0690    -1.3230 ha         1 OD1       0.156000
     29 H9          -4.2710    -3.9860     0.2810 hn         1 OD1       0.318000
     30 H10         -3.2080    -5.2260    -0.3580 hn         1 OD1       0.318000
     31 H11          3.1020    -0.0520     0.1690 hn         1 OD1       0.315500
     32 H12         -4.7130     3.5120     1.0100 ha         1 OD1       0.119000
     33 H13          7.8290    -3.4680     1.2010 hn         1 OD1       0.393500
     34 H14          6.5260    -3.1570     2.1010 hn         1 OD1       0.393500
     35 H16         -5.6490     1.2080     1.2450 ha         1 OD1       0.126000
     36 H17          5.6300     0.0990    -1.1200 h1         1 OD1       0.051700
     37 H18          5.8100     0.7980     0.5080 h1         1 OD1       0.051700
     38 H19          4.8960    -1.3120     1.5070 hc         1 OD1       0.052700
     39 H20          4.7200    -2.0070    -0.1090 hc         1 OD1       0.052700
     40 H21          7.3810    -1.1530     1.1760 h1         1 OD1       0.031200
     41 H22          7.2020    -1.8480    -0.4570 h1         1 OD1       0.031200
@<TRIPOS>BOND
     1     1     3 ar  
     2     1    14 ar  
     3     1    25 1   
     4     2    11 1   
     5     2    13 1   
     6     2    21 2   
     7     3     4 ar  
     8     3     9 1   
     9     4     7 1   
    10     4    16 ar  
    11     5     9 2   
    12     5    10 1   
    13     5    26 1   
    14     6     7 2   
    15     6     8 1   
    16     6    18 1   
    17     7    27 1   
    18     8    12 1   
    19     8    19 2   
    20     9    20 1   
    21    10    11 2   
    22    10    28 1   
    23    11    20 1   
    24    12    29 1   
    25    12    30 1   
    26    13    22 1   
    27    13    31 1   
    28    14    17 ar  
    29    14    32 1   
    30    15    24 1   
    31    15    33 1   
    32    15    34 1   
    33    16    17 ar  
    34    16    18 1   
    35    17    35 1   
    36    22    23 1   
    37    22    36 1   
    38    22    37 1   
    39    23    24 1   
    40    23    38 1   
    41    23    39 1   
    42    24    40 1   
    43    24    41 1   
@<TRIPOS>SUBSTRUCTURE
     1 OD1         1 TEMP              0 ****  ****    0 ROOT
