@<TRIPOS>MOLECULE
OD1
   41    43     1     0     0
SMALL
abcg2


@<TRIPOS>ATOM
      1 C4          -2.5670     2.7200     0.7920 ca         1 OD1      -0.099000
      2 C14          3.3560     1.4420    -0.8660 c          1 OD1       0.642700
      3 C5          -1.8800     1.6560     0.2280 ca         1 OD1       0.030000
      4 C6          -2.5340     0.4080     0.1410 ca         1 OD1      -0.076800
      5 C11         -0.0700     2.9220    -1.0210 cc         1 OD1      -0.133000
      6 C7          -2.9990    -1.8170    -0.3490 cc         1 OD1      -0.137600
      7 C8          -2.0860    -0.8180    -0.4410 cd         1 OD1      -0.102200
      8 C9          -2.7790    -3.1840    -0.8860 c          1 OD1       0.643300
      9 C10         -0.5210     1.8710    -0.2680 cd         1 OD1      -0.151000
     10 C12          1.3140     2.8570    -1.2910 cc         1 OD1      -0.065000
     11 C13          1.9170     1.7640    -0.7350 cd         1 OD1      -0.287600
     12 N1          -3.7200    -4.0970    -0.6130 nt         1 OD1      -0.604000
     13 N2           3.8340     0.4590    -0.0900 ns         1 OD1      -0.504900
     14 C3          -3.8690     2.5750     1.2820 ca         1 OD1      -0.092000
     15 N3           7.0730    -2.8010     1.5680 n8         1 OD1      -0.995200
     16 C1          -3.8390     0.2870     0.6540 ca         1 OD1      -0.147000
     17 C2          -4.5170     1.3580     1.2280 ca         1 OD1      -0.081000
     18 S1          -4.4620    -1.3100     0.4390 ss         1 OD1       0.058400
     19 O1          -1.7780    -3.4260    -1.5450 o          1 OD1      -0.595100
     20 S2           0.7730     0.8030     0.1230 ss         1 OD1       0.229000
     21 O2           4.0540     2.0620    -1.6580 o          1 OD1      -0.597100
     22 C15          5.2240     0.0470    -0.1300 c3         1 OD1       0.106000
     23 C16          5.4420    -1.1730     0.7480 c3         1 OD1      -0.099400
     24 C17          6.8910    -1.6360     0.7170 c3         1 OD1       0.152800
     25 H1          -2.0780     3.6810     0.8760 ha         1 OD1       0.123000
     26 H2          -0.7200     3.7050    -1.3860 ha         1 OD1       0.141000
     27 H4          -1.1310    -0.9560    -0.9230 ha         1 OD1       0.231000
     28 H6           1.8480     3.5900    -1.8770 ha         1 OD1       0.156000
     29 H9          -4.5130    -3.9230    -0.0180 hn         1 OD1       0.318000
     30 H10         -3.6100    -5.0390    -0.9500 hn         1 OD1       0.318000
     31 H11          3.2520     0.0460     0.6220 hn         1 OD1       0.315500
     32 H12         -4.3670     3.4290     1.7200 ha         1 OD1       0.119000
     33 H13          8.0270    -3.1310     1.4890 hn         1 OD1       0.393500
     34 H14          6.9620    -2.5270     2.5370 hn         1 OD1       0.393500
     35 H16         -5.5210     1.2420     1.6150 ha         1 OD1       0.126000
     36 H17          5.5030    -0.1820    -1.1610 h1         1 OD1       0.051700
     37 H18          5.8690     0.8670     0.2000 h1         1 OD1       0.051700
     38 H19          5.1590    -0.9370     1.7800 hc         1 OD1       0.052700
     39 H20          4.7960    -1.9920     0.4170 hc         1 OD1       0.052700
     40 H21          7.5430    -0.7910     0.9820 h1         1 OD1       0.031200
     41 H22          7.1520    -1.9150    -0.3070 h1         1 OD1       0.031200
@<TRIPOS>BOND
     1     1     3 ar  
     2     1    14 ar  
     3     1    25 1   
     4     2    11 1   
     5     2    13 1   
     6     2    21 2   
     7     3     4 ar  
     8     3     9 1   
     9     4     7 1   
    10     4    16 ar  
    11     5     9 2   
    12     5    10 1   
    13     5    26 1   
    14     6     7 2   
    15     6     8 1   
    16     6    18 1   
    17     7    27 1   
    18     8    12 1   
    19     8    19 2   
    20     9    20 1   
    21    10    11 2   
    22    10    28 1   
    23    11    20 1   
    24    12    29 1   
    25    12    30 1   
    26    13    22 1   
    27    13    31 1   
    28    14    17 ar  
    29    14    32 1   
    30    15    24 1   
    31    15    33 1   
    32    15    34 1   
    33    16    17 ar  
    34    16    18 1   
    35    17    35 1   
    36    22    23 1   
    37    22    36 1   
    38    22    37 1   
    39    23    24 1   
    40    23    38 1   
    41    23    39 1   
    42    24    40 1   
    43    24    41 1   
@<TRIPOS>SUBSTRUCTURE
     1 OD1         1 TEMP              0 ****  ****    0 ROOT
