@<TRIPOS>MOLECULE
OD2
   33    35     1     0     0
SMALL
No Charge or Current Charge


@<TRIPOS>ATOM
      1 C            6.2310    -1.7440    -0.0170 c          1 OD2       0.734000
      2 O            6.5560    -2.2390    -1.0880 o          1 OD2      -0.709000
      3 O1           6.5690    -2.1960     1.0690 o          1 OD2      -0.709000
      4 C1           5.3650    -0.4720    -0.0370 c3         1 OD2      -0.088400
      5 S            3.5410    -0.8410    -0.0180 ss         1 OD2      -0.257300
      6 C2           2.7630     0.7740    -0.0450 ca         1 OD2       0.242300
      7 N1           3.5300     1.8880    -0.0710 nb         1 OD2      -0.205000
      8 C14          2.8820     3.0790    -0.0910 ca         1 OD2       0.130900
      9 N            1.5420     3.2720    -0.0870 nb         1 OD2      -0.194000
     10 C4           0.8020     2.1500    -0.0600 ca         1 OD2       0.132800
     11 C5          -0.6360     2.1270    -0.0510 cc         1 OD2      -0.286800
     12 C6          -1.1370     0.8290    -0.0230 cd         1 OD2      -0.012600
     13 S1           0.1670    -0.4120    -0.0060 ss         1 OD2       0.141400
     14 C3           1.3650     0.8940    -0.0390 ca         1 OD2      -0.289000
     15 C7          -2.5690     0.4390    -0.0060 ca         1 OD2      -0.017800
     16 C12         -3.5900     1.4160    -0.0200 ca         1 OD2      -0.086000
     17 C11         -4.9450     1.0430    -0.0050 ca         1 OD2      -0.110500
     18 C10         -5.3160    -0.3100     0.0240 ca         1 OD2      -0.096000
     19 S2          -7.0690    -0.7080     0.0430 ss         1 OD2      -0.174000
     20 C13         -7.1660    -2.5530     0.0810 c3         1 OD2       0.022900
     21 C9          -4.3090    -1.2930     0.0380 ca         1 OD2      -0.110500
     22 C8          -2.9530    -0.9220     0.0230 ca         1 OD2      -0.086000
     23 H2           5.6210     0.1350     0.8400 h1         1 OD2       0.061700
     24 H3           5.6100     0.0990    -0.9400 h1         1 OD2       0.061700
     25 H4           3.5040     3.9720    -0.1120 h5         1 OD2       0.035100
     26 H5          -1.2460     3.0240    -0.0650 ha         1 OD2       0.206000
     27 H6          -3.3500     2.4740    -0.0430 ha         1 OD2       0.121500
     28 H7          -5.7120     1.8150    -0.0160 ha         1 OD2       0.115000
     29 H8          -6.6820    -2.9700    -0.8100 h1         1 OD2       0.063700
     30 H9          -6.6710    -2.9340     0.9830 h1         1 OD2       0.063700
     31 H10         -8.2190    -2.8620     0.0930 h1         1 OD2       0.063700
     32 H11         -4.5540    -2.3500     0.0610 ha         1 OD2       0.115000
     33 H12         -2.2080    -1.7120     0.0340 ha         1 OD2       0.121500
@<TRIPOS>BOND
     1     1     2 1   
     2     1     3 1   
     3     1     4 1   
     4     4     5 1   
     5     4    23 1   
     6     4    24 1   
     7     5     6 1   
     8     6     7 ar  
     9     6    14 ar  
    10     7     8 ar  
    11     8     9 ar  
    12     8    25 1   
    13     9    10 ar  
    14    10    11 1   
    15    10    14 ar  
    16    11    12 2   
    17    11    26 1   
    18    12    13 1   
    19    12    15 1   
    20    13    14 1   
    21    15    16 ar  
    22    15    22 ar  
    23    16    17 ar  
    24    16    27 1   
    25    17    18 ar  
    26    17    28 1   
    27    18    19 1   
    28    18    21 ar  
    29    19    20 1   
    30    20    29 1   
    31    20    30 1   
    32    20    31 1   
    33    21    22 ar  
    34    21    32 1   
    35    22    33 1   
@<TRIPOS>SUBSTRUCTURE
     1 OD2         1 TEMP              0 ****  ****    0 ROOT
