@<TRIPOS>MOLECULE
OD2
   33    35     1     0     0
SMALL
bcc


@<TRIPOS>ATOM
      1 C            6.0190    -1.7350    -0.2940 c          1 OD2       0.944600
      2 O            5.3400    -2.7590    -0.4960 o          1 OD2      -0.814300
      3 O1           7.2530    -1.6310    -0.2270 o          1 OD2      -0.814300
      4 C1           5.2400    -0.4200    -0.0990 c3         1 OD2      -0.136300
      5 S            3.4740    -0.7910    -0.2250 ss         1 OD2      -0.209400
      6 C2           2.7450     0.7750    -0.0080 ca         1 OD2       0.570600
      7 N1           3.4720     1.8680     0.1520 nb         1 OD2      -0.731000
      8 C14          2.8350     3.0310     0.3120 ca         1 OD2       0.656900
      9 N            1.5380     3.2400     0.3320 nb         1 OD2      -0.720000
     10 C4           0.7810     2.1440     0.1700 ca         1 OD2       0.461100
     11 C5          -0.6430     2.0950     0.1630 cc         1 OD2      -0.236800
     12 C6          -1.1220     0.8330    -0.0140 cd         1 OD2      -0.012600
     13 S1           0.1540    -0.3450    -0.1860 ss         1 OD2       0.014500
     14 C3           1.3510     0.8800    -0.0050 ca         1 OD2      -0.292700
     15 C7          -2.5170     0.4090    -0.0750 ca         1 OD2      -0.017800
     16 C12         -3.5150     1.3310    -0.4090 ca         1 OD2      -0.104000
     17 C11         -4.8420     0.9570    -0.4550 ca         1 OD2      -0.128500
     18 C10         -5.2200    -0.3600    -0.1720 ca         1 OD2       0.030900
     19 S2          -6.9330    -0.7240    -0.2540 ss         1 OD2      -0.253000
     20 C13         -7.0250    -2.4780     0.1450 c3         1 OD2      -0.025000
     21 C9          -4.2320    -1.2860     0.1540 ca         1 OD2      -0.128500
     22 C8          -2.9020    -0.9010     0.2010 ca         1 OD2      -0.104000
     23 H2           5.4570     0.0170     0.8770 h1         1 OD2       0.061700
     24 H3           5.5200     0.3140    -0.8550 h1         1 OD2       0.061700
     25 H4           3.4720     3.9000     0.4410 h5         1 OD2       0.035100
     26 H5          -1.2660     2.9660     0.3080 ha         1 OD2       0.156000
     27 H6          -3.2540     2.3520    -0.6550 ha         1 OD2       0.139500
     28 H7          -5.5900     1.6930    -0.7200 ha         1 OD2       0.133000
     29 H8          -6.5000    -3.0870    -0.5890 h1         1 OD2       0.063700
     30 H9          -6.6450    -2.6840     1.1440 h1         1 OD2       0.063700
     31 H10         -8.0820    -2.7320     0.1160 h1         1 OD2       0.063700
     32 H11         -4.4820    -2.3120     0.3850 ha         1 OD2       0.133000
     33 H12         -2.1650    -1.6460     0.4780 ha         1 OD2       0.139500
@<TRIPOS>BOND
     1     1     2 1   
     2     1     3 1   
     3     1     4 1   
     4     4     5 1   
     5     4    23 1   
     6     4    24 1   
     7     5     6 1   
     8     6     7 ar  
     9     6    14 ar  
    10     7     8 ar  
    11     8     9 ar  
    12     8    25 1   
    13     9    10 ar  
    14    10    11 1   
    15    10    14 ar  
    16    11    12 2   
    17    11    26 1   
    18    12    13 1   
    19    12    15 1   
    20    13    14 1   
    21    15    16 ar  
    22    15    22 ar  
    23    16    17 ar  
    24    16    27 1   
    25    17    18 ar  
    26    17    28 1   
    27    18    19 1   
    28    18    21 ar  
    29    19    20 1   
    30    20    29 1   
    31    20    30 1   
    32    20    31 1   
    33    21    22 ar  
    34    21    32 1   
    35    22    33 1   
@<TRIPOS>SUBSTRUCTURE
     1 OD2         1 TEMP              0 ****  ****    0 ROOT
