@<TRIPOS>MOLECULE
OD3
   10    10     1     0     0
SMALL
No Charge or Current Charge


@<TRIPOS>ATOM
      1 O1          23.4740   -10.0480    41.9250 o          1 OD3      -0.458000
      2 C1          24.6820    -9.8930    41.8850 c          1 OD3       0.601600
      3 S1          25.9330   -10.9370    42.6620 ss         1 OD3      -0.270600
      4 C2          27.3070    -9.8530    42.0000 c5         1 OD3      -0.064400
      5 C3          26.6610    -8.7150    41.1920 c          1 OD3       0.579000
      6 O2          27.2090    -7.8000    40.6000 o          1 OD3      -0.483000
      7 N1          25.3150    -8.8880    41.2360 ns         1 OD3      -0.486500
      8 H1          27.9690   -10.4240    41.3380 h1         1 OD3       0.113700
      9 H2          27.8880    -9.4170    42.8210 h1         1 OD3       0.113700
     10 H3          24.7420    -8.2160    40.7480 hn         1 OD3       0.353500
@<TRIPOS>BOND
     1     1     2 2   
     2     2     3 1   
     3     2     7 1   
     4     3     4 1   
     5     4     5 1   
     6     4     8 1   
     7     4     9 1   
     8     5     6 2   
     9     5     7 1   
    10     7    10 1   
@<TRIPOS>SUBSTRUCTURE
     1 OD3         1 TEMP              0 ****  ****    0 ROOT
