@<TRIPOS>MOLECULE
OD3
   10    10     1     0     0
SMALL
abcg2


@<TRIPOS>ATOM
      1 O1          23.5250   -10.1010    41.9690 o          1 OD3      -0.458000
      2 C1          24.7020    -9.8900    41.8840 c          1 OD3       0.601600
      3 S1          25.9530   -10.8950    42.6260 ss         1 OD3      -0.270600
      4 C2          27.2860    -9.8480    41.9950 c5         1 OD3      -0.064400
      5 C3          26.6480    -8.7310    41.1990 c          1 OD3       0.579000
      6 O2          27.2580    -7.8580    40.6370 o          1 OD3      -0.483000
      7 N1          25.2840    -8.8460    41.2050 ns         1 OD3      -0.486500
      8 H1          27.9560   -10.4210    41.3550 h1         1 OD3       0.113700
      9 H2          27.8670    -9.4280    42.8160 h1         1 OD3       0.113700
     10 H3          24.7010    -8.1730    40.7210 hn         1 OD3       0.353500
@<TRIPOS>BOND
     1     1     2 2   
     2     2     3 1   
     3     2     7 1   
     4     3     4 1   
     5     4     5 1   
     6     4     8 1   
     7     4     9 1   
     8     5     6 2   
     9     5     7 1   
    10     7    10 1   
@<TRIPOS>SUBSTRUCTURE
     1 OD3         1 TEMP              0 ****  ****    0 ROOT
