@<TRIPOS>MOLECULE
OD4
   39    41     1     0     0
SMALL
bcc


@<TRIPOS>ATOM
      1 C1           3.3630    -1.4610     0.8410 c          1 OD4       0.717700
      2 C2           1.9250    -1.7850     0.7160 cc         1 OD4      -0.178700
      3 C3          -0.5200    -1.8920     0.2670 cc         1 OD4       0.048900
      4 C4          -0.0610    -2.9420     1.0180 cd         1 OD4      -0.189000
      5 C5           1.3250    -2.8770     1.2760 cd         1 OD4      -0.081000
      6 C6          -1.8830    -1.6790    -0.2210 ca         1 OD4      -0.021000
      7 C10         -3.8430    -0.3150    -0.6590 ca         1 OD4      -0.083100
      8 C11         -2.5310    -0.4270    -0.1550 ca         1 OD4      -0.035800
      9 C12         -2.9890     1.8110     0.2840 cc         1 OD4      -0.052600
     10 C13         -2.0750     0.8180     0.3900 cd         1 OD4      -0.181200
     11 C14         -2.8970     3.2460     0.7370 c          1 OD4       0.938800
     12 C15          5.2150    -0.0270     0.1420 c3         1 OD4       0.109000
     13 C16          5.4290     1.1960    -0.7330 c3         1 OD4      -0.101400
     14 C17          6.8740     1.6710    -0.6900 c3         1 OD4       0.152800
     15 N1           3.8270    -0.4420     0.1030 ns         1 OD4      -0.573900
     16 O1           4.0760    -2.1110     1.5950 o          1 OD4      -0.620100
     17 S1           0.7730    -0.8260    -0.1350 ss         1 OD4      -0.038800
     18 C7          -2.5750    -2.7560    -0.7580 ca         1 OD4      -0.121000
     19 C8          -3.8790    -2.6210    -1.2400 ca         1 OD4      -0.164000
     20 C9          -4.5230    -1.4000    -1.2040 ca         1 OD4      -0.081000
     21 S2          -4.4570     1.2940    -0.4740 ss         1 OD4      -0.034500
     22 O2          -1.8330     3.5900     1.2770 o          1 OD4      -0.805300
     23 O3          -3.9140     3.9290     0.5150 o          1 OD4      -0.805300
     24 N2           7.0570     2.8310    -1.5480 n8         1 OD4      -0.886800
     25 H3          -0.7080    -3.7240     1.3880 ha         1 OD4       0.152000
     26 H5           1.8630    -3.6100     1.8600 ha         1 OD4       0.158000
     27 H8          -1.1140     0.9710     0.8590 ha         1 OD4       0.167000
     28 H10          5.8610    -0.8440    -0.1940 h1         1 OD4       0.045200
     29 H11          5.4980     0.1980     1.1740 h1         1 OD4       0.045200
     30 H12          5.1570     0.9680    -1.7680 hc         1 OD4       0.056200
     31 H13          4.7700     2.0040    -0.3970 hc         1 OD4       0.056200
     32 H14          7.1580     1.8490     0.3570 h1         1 OD4       0.027200
     33 H15          7.5240     0.8700    -1.0520 h1         1 OD4       0.027200
     34 H16          3.2300     0.0110    -0.5710 hn         1 OD4       0.321500
     35 H17         -2.0850    -3.7190    -0.8240 ha         1 OD4       0.117000
     36 H18         -4.3820    -3.4830    -1.6570 ha         1 OD4       0.114000
     37 H19         -5.5300    -1.2920    -1.5860 ha         1 OD4       0.126000
     38 H21          6.5390     3.6130    -1.1670 hn         1 OD4       0.336800
     39 H22          8.0280     3.1140    -1.5280 hn         1 OD4       0.336800
@<TRIPOS>BOND
     1     1     2 1   
     2     1    15 1   
     3     1    16 2   
     4     2     5 2   
     5     2    17 1   
     6     3     4 2   
     7     3     6 1   
     8     3    17 1   
     9     4     5 1   
    10     4    25 1   
    11     5    26 1   
    12     6     8 ar  
    13     6    18 ar  
    14     7     8 ar  
    15     7    20 ar  
    16     7    21 1   
    17     8    10 1   
    18     9    10 2   
    19     9    11 1   
    20     9    21 1   
    21    10    27 1   
    22    11    22 1   
    23    11    23 1   
    24    12    13 1   
    25    12    15 1   
    26    12    28 1   
    27    12    29 1   
    28    13    14 1   
    29    13    30 1   
    30    13    31 1   
    31    14    24 1   
    32    14    32 1   
    33    14    33 1   
    34    15    34 1   
    35    18    19 ar  
    36    18    35 1   
    37    19    20 ar  
    38    19    36 1   
    39    20    37 1   
    40    24    38 1   
    41    24    39 1   
@<TRIPOS>SUBSTRUCTURE
     1 OD4         1 TEMP              0 ****  ****    0 ROOT
