@<TRIPOS>MOLECULE
OD4
   39    41     1     0     0
SMALL
No Charge or Current Charge


@<TRIPOS>ATOM
      1 C1           3.3860    -1.5630     0.8750 c          1 OD4       0.650700
      2 C2           1.9400    -1.8020     0.7240 cc         1 OD4      -0.323600
      3 C3          -0.5020    -1.8200     0.2090 cc         1 OD4      -0.096000
      4 C4          -0.1270    -2.8520     1.0320 cd         1 OD4      -0.171000
      5 C5           1.2630    -2.8370     1.3320 cd         1 OD4      -0.063000
      6 C6          -1.8830    -1.6860    -0.2560 ca         1 OD4      -0.021000
      7 C10         -3.8750    -0.3420    -0.6660 ca         1 OD4      -0.210000
      8 C11         -2.5790    -0.4600    -0.1990 ca         1 OD4      -0.035800
      9 C12         -3.0500     1.8380     0.2650 cc         1 OD4      -0.052600
     10 C13         -2.1280     0.8050     0.3410 cd         1 OD4      -0.231200
     11 C14         -2.8380     3.2230     0.7750 c          1 OD4       0.728200
     12 C15          5.2440    -0.0360     0.1670 c3         1 OD4       0.109000
     13 C16          5.4440     1.2090    -0.7170 c3         1 OD4      -0.101400
     14 C17          6.9090     1.6850    -0.7400 c3         1 OD4       0.152800
     15 N1           3.8500    -0.4750     0.1770 ns         1 OD4      -0.506900
     16 O1           4.1230    -2.2610     1.5560 o          1 OD4      -0.620100
     17 S1           0.8600    -0.8070    -0.2550 ss         1 OD4       0.251000
     18 C7          -2.5600    -2.8030    -0.7950 ca         1 OD4      -0.103000
     19 C8          -3.8840    -2.6830    -1.2690 ca         1 OD4      -0.146000
     20 C9          -4.5500    -1.4450    -1.2100 ca         1 OD4      -0.063000
     21 S2          -4.5680     1.3000    -0.5050 ss         1 OD4       0.092400
     22 O2          -1.7660     3.5010     1.2980 o          1 OD4      -0.700000
     23 O3          -3.7400     4.0410     0.6540 o          1 OD4      -0.700000
     24 N2           7.0750     2.8710    -1.5980 n8         1 OD4      -0.997200
     25 H3          -0.8150    -3.5970     1.4190 ha         1 OD4       0.134000
     26 H5           1.7400    -3.5720     1.9750 ha         1 OD4       0.140000
     27 H8          -1.1570     0.9430     0.8060 ha         1 OD4       0.217000
     28 H10          5.8710    -0.8570    -0.2060 h1         1 OD4       0.045200
     29 H11          5.5500     0.1920     1.1970 h1         1 OD4       0.045200
     30 H12          5.1220     0.9780    -1.7400 hc         1 OD4       0.056200
     31 H13          4.8030     2.0190    -0.3470 hc         1 OD4       0.056200
     32 H14          7.2330     1.9380     0.2790 h1         1 OD4       0.027200
     33 H15          7.5540     0.8810    -1.1220 h1         1 OD4       0.027200
     34 H16          3.1720     0.0470    -0.3610 hn         1 OD4       0.321500
     35 H17         -2.0560    -3.7640    -0.8590 ha         1 OD4       0.099000
     36 H18         -4.3900    -3.5500    -1.6860 ha         1 OD4       0.096000
     37 H19         -5.5700    -1.3470    -1.5750 ha         1 OD4       0.108000
     38 H21          6.5430     3.6520    -1.1960 hn         1 OD4       0.392000
     39 H22          8.0500     3.1910    -1.5420 hn         1 OD4       0.392000
@<TRIPOS>BOND
     1     1     2 1   
     2     1    15 1   
     3     1    16 2   
     4     2     5 2   
     5     2    17 1   
     6     3     4 2   
     7     3     6 1   
     8     3    17 1   
     9     4     5 1   
    10     4    25 1   
    11     5    26 1   
    12     6     8 ar  
    13     6    18 ar  
    14     7     8 ar  
    15     7    20 ar  
    16     7    21 1   
    17     8    10 1   
    18     9    10 2   
    19     9    11 1   
    20     9    21 1   
    21    10    27 1   
    22    11    22 1   
    23    11    23 1   
    24    12    13 1   
    25    12    15 1   
    26    12    28 1   
    27    12    29 1   
    28    13    14 1   
    29    13    30 1   
    30    13    31 1   
    31    14    24 1   
    32    14    32 1   
    33    14    33 1   
    34    15    34 1   
    35    18    19 ar  
    36    18    35 1   
    37    19    20 ar  
    38    19    36 1   
    39    20    37 1   
    40    24    38 1   
    41    24    39 1   
@<TRIPOS>SUBSTRUCTURE
     1 OD4         1 TEMP              0 ****  ****    0 ROOT
