@<TRIPOS>MOLECULE
OD5
   29    30     1     0     0
SMALL
bcc


@<TRIPOS>ATOM
      1 C2          23.8230   -43.5940    30.6120 ca         1 OD5       0.064100
      2 C3          24.5520   -42.4220    30.3430 ca         1 OD5       0.138100
      3 C4          24.2560   -41.6650    29.2200 ca         1 OD5      -0.185500
      4 C5          23.2450   -42.0510    28.3520 ca         1 OD5      -0.022000
      5 C6          19.7790   -42.9810    28.2450 ca         1 OD5      -0.270500
      6 C9          17.5380   -41.8100    29.3710 ca         1 OD5       0.138100
      7 C8          17.9410   -43.0780    29.7670 ca         1 OD5      -0.185500
      8 C10         18.2730   -41.1230    28.3880 ca         1 OD5       0.064100
      9 C11         19.3900   -41.7110    27.8280 ca         1 OD5      -0.067000
     10 O5          21.0970   -45.1580    27.6380 o          1 OD5      -0.599300
     11 O           21.4610   -43.0870    26.2440 o          1 OD5      -0.599300
     12 O4          17.8080   -39.9030    28.0560 oh         1 OD5      -0.505100
     13 O3          16.4530   -41.2680    29.9380 oh         1 OD5      -0.498100
     14 C7          19.0610   -43.6730    29.2060 ca         1 OD5      -0.022000
     15 C           22.5350   -43.2060    28.6280 ca         1 OD5      -0.270500
     16 O2          25.5150   -42.1170    31.2280 oh         1 OD5      -0.498100
     17 O1          24.0860   -44.3530    31.6910 oh         1 OD5      -0.505100
     18 C1          22.8180   -43.9830    29.7470 ca         1 OD5      -0.067000
     19 H3          24.8250   -40.7650    29.0150 ha         1 OD5       0.146500
     20 H4          23.0300   -41.4480    27.4810 ha         1 OD5       0.157500
     21 H6          17.3640   -43.6030    30.5170 ha         1 OD5       0.146500
     22 H9          19.9530   -41.1770    27.0700 ha         1 OD5       0.161000
     23 H8          18.3410   -39.4970    27.3630 ho         1 OD5       0.443500
     24 H7          16.2640   -40.3980    29.5630 ho         1 OD5       0.447500
     25 H5          19.3550   -44.6630    29.5240 ha         1 OD5       0.157500
     26 H2          25.9730   -41.3030    30.9880 ho         1 OD5       0.447500
     27 H1          24.8130   -43.9790    32.2040 ho         1 OD5       0.443500
     28 H           22.2680   -44.8920    29.9580 ha         1 OD5       0.161000
     29 S           21.2290   -43.7060    27.5460 sy         1 OD5       1.178600
@<TRIPOS>BOND
     1     1     2 ar  
     2     1    17 1   
     3     1    18 ar  
     4     2     3 ar  
     5     2    16 1   
     6     3     4 ar  
     7     3    19 1   
     8     4    15 ar  
     9     4    20 1   
    10     5     9 ar  
    11     5    14 ar  
    12     5    29 1   
    13     6     7 ar  
    14     6     8 ar  
    15     6    13 1   
    16     7    14 ar  
    17     7    21 1   
    18     8     9 ar  
    19     8    12 1   
    20     9    22 1   
    21    10    29 2   
    22    11    29 2   
    23    12    23 1   
    24    13    24 1   
    25    14    25 1   
    26    15    18 ar  
    27    15    29 1   
    28    16    26 1   
    29    17    27 1   
    30    18    28 1   
@<TRIPOS>SUBSTRUCTURE
     1 OD5         1 TEMP              0 ****  ****    0 ROOT
