@<TRIPOS>MOLECULE
OD5
   29    30     1     0     0
SMALL
No Charge or Current Charge


@<TRIPOS>ATOM
      1 C2          23.8790   -43.6500    30.6200 ca         1 OD5       0.064100
      2 C3          24.5790   -42.4460    30.3910 ca         1 OD5       0.138100
      3 C4          24.2560   -41.6480    29.2820 ca         1 OD5      -0.167500
      4 C5          23.2380   -42.0470    28.3970 ca         1 OD5      -0.004000
      5 C6          19.7550   -42.9890    28.2190 ca         1 OD5      -0.270500
      6 C9          17.4880   -41.7960    29.3830 ca         1 OD5       0.138100
      7 C8          17.8910   -43.0760    29.7910 ca         1 OD5      -0.167500
      8 C10         18.2130   -41.1000    28.3950 ca         1 OD5       0.064100
      9 C11         19.3490   -41.6970    27.8140 ca         1 OD5      -0.049000
     10 O5          21.0670   -45.2130    27.6010 o          1 OD5      -0.528500
     11 O           21.4680   -43.1120    26.1930 o          1 OD5      -0.528500
     12 O4          17.8060   -39.8460    28.0090 oh         1 OD5      -0.544100
     13 O3          16.3880   -41.2170    29.9460 oh         1 OD5      -0.537100
     14 C7          19.0240   -43.6740    29.2130 ca         1 OD5      -0.004000
     15 C           22.5400   -43.2520    28.6190 ca         1 OD5      -0.270500
     16 O2          25.5690   -42.0600    31.2550 oh         1 OD5      -0.537100
     17 O1          24.1930   -44.4250    31.7040 oh         1 OD5      -0.544100
     18 C1          22.8620   -44.0520    29.7380 ca         1 OD5      -0.049000
     19 H3          24.7870   -40.7170    29.0980 ha         1 OD5       0.128500
     20 H4          22.9960   -41.4150    27.5430 ha         1 OD5       0.139500
     21 H6          17.3290   -43.6060    30.5550 ha         1 OD5       0.128500
     22 H9          19.9140   -41.1600    27.0540 ha         1 OD5       0.143000
     23 H8          18.4130   -39.5060    27.3140 ho         1 OD5       0.482500
     24 H7          16.2960   -40.3370    29.5150 ho         1 OD5       0.486500
     25 H5          19.3300   -44.6670    29.5410 ha         1 OD5       0.139500
     26 H2          25.9430   -41.2070    30.9420 ho         1 OD5       0.486500
     27 H1          24.9220   -43.9630    32.1780 ho         1 OD5       0.482500
     28 H           22.3280   -44.9810    29.9290 ha         1 OD5       0.143000
     29 S           21.2210   -43.7550    27.4910 sy         1 OD5       1.037000
@<TRIPOS>BOND
     1     1     2 ar  
     2     1    17 1   
     3     1    18 ar  
     4     2     3 ar  
     5     2    16 1   
     6     3     4 ar  
     7     3    19 1   
     8     4    15 ar  
     9     4    20 1   
    10     5     9 ar  
    11     5    14 ar  
    12     5    29 1   
    13     6     7 ar  
    14     6     8 ar  
    15     6    13 1   
    16     7    14 ar  
    17     7    21 1   
    18     8     9 ar  
    19     8    12 1   
    20     9    22 1   
    21    10    29 2   
    22    11    29 2   
    23    12    23 1   
    24    13    24 1   
    25    14    25 1   
    26    15    18 ar  
    27    15    29 1   
    28    16    26 1   
    29    17    27 1   
    30    18    28 1   
@<TRIPOS>SUBSTRUCTURE
     1 OD5         1 TEMP              0 ****  ****    0 ROOT
