@<TRIPOS>MOLECULE
OD6
   33    35     1     0     0
SMALL
abcg2


@<TRIPOS>ATOM
      1 C1         -15.3820     2.6480     4.4600 cc         1 OD6       0.398500
      2 C4         -14.1130     0.5990     3.8410 ca         1 OD6      -0.083500
      3 C12        -10.4420     1.1080    -1.8610 ca         1 OD6      -0.109500
      4 C2         -15.7610     3.9330     4.2410 cd         1 OD6      -0.174000
      5 C3         -14.7370     1.7850     3.4580 ca         1 OD6      -0.129500
      6 C11         -9.3230     1.3170    -1.0690 ca         1 OD6      -0.111000
      7 C8         -11.5490    -0.0310    -0.0360 ca         1 OD6      -0.078300
      8 C14        -14.0970     1.3120     1.1720 ca         1 OD6      -0.112500
      9 C9         -10.4170     0.1830     0.7500 ca         1 OD6      -0.104500
     10 C6         -13.4610     0.1320     1.5590 ca         1 OD6      -0.068300
     11 C15        -14.7250     2.1220     2.1000 ca         1 OD6      -0.083500
     12 C5         -13.4840    -0.2100     2.9050 ca         1 OD6      -0.112500
     13 C13        -11.5460     0.4380    -1.3460 ca         1 OD6      -0.104500
     14 C10         -9.3130     0.8490     0.2400 ca         1 OD6      -0.109500
     15 C          -16.1680     2.9580     6.5270 cd         1 OD6       0.804300
     16 SE         -16.5200     4.6570     5.7760 ss         1 OD6      -0.308400
     17 N1         -15.6060     2.1270     5.7130 nc         1 OD6      -0.747000
     18 H1         -14.1140     0.3080     4.8830 ha         1 OD6       0.121000
     19 H3         -15.6500     4.5130     3.3370 h4         1 OD6       0.159000
     20 H4          -8.4620     1.8370    -1.4680 ha         1 OD6       0.111000
     21 H7         -14.1050     1.6000     0.1270 ha         1 OD6       0.112500
     22 H8         -10.4030    -0.1750     1.7740 ha         1 OD6       0.111000
     23 H9         -15.2210     3.0200     1.7560 ha         1 OD6       0.121000
     24 H10        -13.0020    -1.1240     3.2320 ha         1 OD6       0.112500
     25 H11        -12.4170     0.2780    -1.9720 ha         1 OD6       0.111000
     26 H12         -8.4430     1.0040     0.8650 ha         1 OD6       0.111500
     27 C7         -12.7570    -0.7260     0.5390 c3         1 OD6       0.014200
     28 N          -16.4410     2.6830     7.8190 nv         1 OD6      -1.048900
     29 H2         -10.4590     1.4660    -2.8830 ha         1 OD6       0.111500
     30 H5         -13.4470    -0.9810    -0.2690 hc         1 OD6       0.054700
     31 H6         -12.4570    -1.6680     1.0050 hc         1 OD6       0.054700
     32 H13        -17.1140     3.2410     8.3170 hn         1 OD6       0.487000
     33 H14        -16.4140     1.7120     8.0880 hn         1 OD6       0.487000
@<TRIPOS>BOND
     1     1     4 2   
     2     1     5 1   
     3     1    17 1   
     4     2     5 ar  
     5     2    12 ar  
     6     2    18 1   
     7     3     6 ar  
     8     3    13 ar  
     9     3    29 1   
    10     4    16 1   
    11     4    19 1   
    12     5    11 ar  
    13     6    14 ar  
    14     6    20 1   
    15     7     9 ar  
    16     7    13 ar  
    17     7    27 1   
    18     8    10 ar  
    19     8    11 ar  
    20     8    21 1   
    21     9    14 ar  
    22     9    22 1   
    23    10    12 ar  
    24    10    27 1   
    25    11    23 1   
    26    12    24 1   
    27    13    25 1   
    28    14    26 1   
    29    15    16 1   
    30    15    17 2   
    31    15    28 1   
    32    27    30 1   
    33    27    31 1   
    34    28    32 1   
    35    28    33 1   
@<TRIPOS>SUBSTRUCTURE
     1 OD6         1 TEMP              0 ****  ****    0 ROOT
