@<TRIPOS>MOLECULE
OD6
   33    35     1     0     0
SMALL
No Charge or Current Charge


@<TRIPOS>ATOM
      1 C1         -15.4510     2.5860     4.5170 cc         1 OD6       0.398500
      2 C4         -13.8230     0.8040     3.8590 ca         1 OD6      -0.083500
      3 C12        -10.3910     1.4600    -1.6140 ca         1 OD6      -0.109500
      4 C2         -15.9940     3.8120     4.2000 cd         1 OD6      -0.174000
      5 C3         -14.7650     1.7890     3.4850 ca         1 OD6      -0.129500
      6 C11         -9.1660     1.2200    -0.9690 ca         1 OD6      -0.111000
      7 C8         -11.5210    -0.0190    -0.0350 ca         1 OD6      -0.078300
      8 C14        -14.4420     1.1340     1.1450 ca         1 OD6      -0.112500
      9 C9         -10.2900    -0.2540     0.6100 ca         1 OD6      -0.104500
     10 C6         -13.4890     0.1730     1.5260 ca         1 OD6      -0.068300
     11 C15        -15.0800     1.9280     2.1130 ca         1 OD6      -0.083500
     12 C5         -13.1860     0.0110     2.8890 ca         1 OD6      -0.112500
     13 C13        -11.5650     0.8430    -1.1480 ca         1 OD6      -0.104500
     14 C10         -9.1160     0.3630     0.1440 ca         1 OD6      -0.109500
     15 C          -16.1780     3.1050     6.4850 cd         1 OD6       0.804300
     16 SE         -16.7210     4.5320     5.6290 ss         1 OD6      -0.308400
     17 N1         -15.5470     2.1790     5.8240 nc         1 OD6      -0.747000
     18 H1         -13.5720     0.6550     4.9070 ha         1 OD6       0.121000
     19 H3         -15.9990     4.3270     3.2480 h4         1 OD6       0.159000
     20 H4          -8.2570     1.6970    -1.3300 ha         1 OD6       0.111000
     21 H7         -14.6930     1.2640     0.0950 ha         1 OD6       0.112500
     22 H8         -10.2440    -0.9130     1.4740 ha         1 OD6       0.111000
     23 H9         -15.8280     2.6450     1.7830 ha         1 OD6       0.121000
     24 H10        -12.4540    -0.7310     3.2010 ha         1 OD6       0.112500
     25 H11        -12.5090     1.0370    -1.6520 ha         1 OD6       0.111000
     26 H12         -8.1690     0.1770     0.6450 ha         1 OD6       0.111500
     27 C7         -12.7940    -0.6830     0.4740 c3         1 OD6       0.014200
     28 N          -16.3910     2.8850     7.7760 nv         1 OD6      -1.048900
     29 H2         -10.4310     2.1240    -2.4750 ha         1 OD6       0.111500
     30 H5         -13.4770    -0.8750    -0.3620 hc         1 OD6       0.054700
     31 H6         -12.5610    -1.6710     0.8890 hc         1 OD6       0.054700
     32 H13        -17.1680     3.3870     8.1880 hn         1 OD6       0.487000
     33 H14        -16.2790     1.9210     8.0590 hn         1 OD6       0.487000
@<TRIPOS>BOND
     1     1     4 2   
     2     1     5 1   
     3     1    17 1   
     4     2     5 ar  
     5     2    12 ar  
     6     2    18 1   
     7     3     6 ar  
     8     3    13 ar  
     9     3    29 1   
    10     4    16 1   
    11     4    19 1   
    12     5    11 ar  
    13     6    14 ar  
    14     6    20 1   
    15     7     9 ar  
    16     7    13 ar  
    17     7    27 1   
    18     8    10 ar  
    19     8    11 ar  
    20     8    21 1   
    21     9    14 ar  
    22     9    22 1   
    23    10    12 ar  
    24    10    27 1   
    25    11    23 1   
    26    12    24 1   
    27    13    25 1   
    28    14    26 1   
    29    15    16 1   
    30    15    17 2   
    31    15    28 1   
    32    27    30 1   
    33    27    31 1   
    34    28    32 1   
    35    28    33 1   
@<TRIPOS>SUBSTRUCTURE
     1 OD6         1 TEMP              0 ****  ****    0 ROOT
