@<TRIPOS>MOLECULE
OD7
   62    66     1     0     0
SMALL
No Charge or Current Charge


@<TRIPOS>ATOM
      1 N1           8.4780    -0.3380    18.3530 nc         1 OD7      -0.152400
      2 N3          10.5520    -0.7100    22.4690 n          1 OD7      -0.241400
      3 C4           6.6160     0.4360    19.2050 ca         1 OD7      -0.015600
      4 C5           9.3550    -1.5820    20.3730 c3         1 OD7       0.010600
      5 C6          10.4570    -0.7450    21.0470 c          1 OD7       0.592100
      6 C7          11.3870     0.3590    23.0840 c3         1 OD7       0.057700
      7 C8          12.8950     0.1310    22.9880 ca         1 OD7       0.316300
      8 C10         14.8470    -1.3070    23.1550 ca         1 OD7      -0.073000
      9 C13          9.9180    -1.6450    23.3650 ca         1 OD7      -0.066000
     10 C15          8.3140    -2.0530    25.1650 ca         1 OD7      -0.100000
     11 C17          9.1940    -3.9210    23.8940 ca         1 OD7      -0.100000
     12 C20          7.9510    -4.3750    27.2840 c6         1 OD7      -0.107400
     13 C21          7.0940    -5.3590    28.1180 c6         1 OD7       0.146800
     14 C22          5.2220    -5.1690    26.5190 c6         1 OD7       0.146800
     15 C24          7.2120    -0.2630    20.2050 ca         1 OD7      -0.027200
     16 O1          11.2080    -0.0660    20.3540 o          1 OD7      -0.559100
     17 N2           8.3740    -0.7410    19.6750 na         1 OD7       0.060600
     18 N            7.4000     0.3930    18.0600 nd         1 OD7      -0.207400
     19 C3           5.3820     1.0680    19.4030 ca         1 OD7       0.006000
     20 C2           4.7730     0.9520    20.6720 ca         1 OD7      -0.162000
     21 C25          6.6460    -0.4050    21.4810 ca         1 OD7      -0.219000
     22 C1           5.3950     0.2200    21.7100 ca         1 OD7       0.174100
     23 O            4.7410     0.1380    22.9220 os         1 OD7      -0.343100
     24 C            5.2960    -0.5720    24.0430 c3         1 OD7       0.147900
     25 N4          13.6560     1.2100    22.6770 nb         1 OD7      -0.652000
     26 C12         14.9970     1.0440    22.5930 ca         1 OD7       0.335900
     27 C11         15.6290    -0.1900    22.8220 ca         1 OD7      -0.159000
     28 C9          13.4560    -1.1380    23.2410 ca         1 OD7      -0.147000
     29 C18          9.9420    -3.0300    23.1050 ca         1 OD7      -0.111000
     30 C16          8.3780    -3.4410    24.9350 ca         1 OD7      -0.067300
     31 C14          9.0570    -1.1640    24.3720 ca         1 OD7      -0.111000
     32 C19          7.5540    -4.4210    25.7840 c6         1 OD7      -0.019400
     33 C23          6.0270    -4.1790    25.6430 c6         1 OD7      -0.107400
     34 N5           5.6460    -5.0880    27.9390 n7         1 OD7      -0.843400
     35 H1           8.8150    -2.1880    21.1020 h1         1 OD7       0.090200
     36 H2           9.8340    -2.2570    19.6560 h1         1 OD7       0.090200
     37 H3          11.1330     1.3170    22.6120 h1         1 OD7       0.076700
     38 H4          11.1380     0.4550    24.1470 h1         1 OD7       0.076700
     39 H5          15.3060    -2.2760    23.3430 ha         1 OD7       0.120000
     40 H6           7.6750    -1.6570    25.9500 ha         1 OD7       0.118500
     41 H7           9.2460    -4.9870    23.6860 ha         1 OD7       0.118500
     42 H9           7.8280    -3.3590    27.6820 hc         1 OD7       0.046200
     43 H10          7.3170    -6.3920    27.8090 h1         1 OD7       0.054950
     44 H11          7.3600    -5.2690    29.1820 h1         1 OD7       0.054950
     45 H12          4.1480    -4.9430    26.4390 h1         1 OD7       0.054950
     46 H13          5.3720    -6.1940    26.1470 h1         1 OD7       0.054950
     47 H14          4.9060     1.6280    18.6000 ha         1 OD7       0.137000
     48 H15          3.8140     1.4290    20.8540 ha         1 OD7       0.132000
     49 H16          7.1540    -0.9780    22.2490 ha         1 OD7       0.125000
     50 H17          4.6120    -0.5270    24.8990 h1         1 OD7       0.043367
     51 H18          5.4610    -1.6280    23.7950 h1         1 OD7       0.043367
     52 H19          6.2520    -0.1270    24.3470 h1         1 OD7       0.043367
     53 H20         15.5810     1.9270    22.3370 h4         1 OD7       0.023100
     54 H21         16.7090    -0.2710    22.7430 ha         1 OD7       0.125000
     55 H22         12.8190    -1.9790    23.5040 ha         1 OD7       0.122000
     56 H23         10.5590    -3.4260    22.3010 ha         1 OD7       0.126500
     57 H24          8.9540    -0.0940    24.5420 ha         1 OD7       0.126500
     58 H25          7.7570    -5.4400    25.4250 hc         1 OD7       0.055700
     59 H26          5.7740    -3.1500    25.9330 hc         1 OD7       0.046200
     60 H27          5.7270    -4.2900    24.5920 hc         1 OD7       0.046200
     61 H28          5.4550    -4.1360    28.2750 hn         1 OD7       0.400000
     62 H8           9.0140    -4.6270    27.3970 hc         1 OD7       0.046200
@<TRIPOS>BOND
     1     1    17 1   
     2     1    18 2   
     3     2     5 1   
     4     2     6 1   
     5     2     9 1   
     6     3    15 ar  
     7     3    18 1   
     8     3    19 ar  
     9     4     5 1   
    10     4    17 1   
    11     4    35 1   
    12     4    36 1   
    13     5    16 2   
    14     6     7 1   
    15     6    37 1   
    16     6    38 1   
    17     7    25 ar  
    18     7    28 ar  
    19     8    27 ar  
    20     8    28 ar  
    21     8    39 1   
    22     9    29 ar  
    23     9    31 ar  
    24    10    30 ar  
    25    10    31 ar  
    26    10    40 1   
    27    11    29 ar  
    28    11    30 ar  
    29    11    41 1   
    30    12    13 1   
    31    12    32 1   
    32    12    42 1   
    33    12    62 1   
    34    13    34 1   
    35    13    43 1   
    36    13    44 1   
    37    14    33 1   
    38    14    34 1   
    39    14    45 1   
    40    14    46 1   
    41    15    17 1   
    42    15    21 ar  
    43    19    20 ar  
    44    19    47 1   
    45    20    22 ar  
    46    20    48 1   
    47    21    22 ar  
    48    21    49 1   
    49    22    23 1   
    50    23    24 1   
    51    24    50 1   
    52    24    51 1   
    53    24    52 1   
    54    25    26 ar  
    55    26    27 ar  
    56    26    53 1   
    57    27    54 1   
    58    28    55 1   
    59    29    56 1   
    60    30    32 1   
    61    31    57 1   
    62    32    33 1   
    63    32    58 1   
    64    33    59 1   
    65    33    60 1   
    66    34    61 1   
@<TRIPOS>SUBSTRUCTURE
     1 OD7         1 TEMP              0 ****  ****    0 ROOT
