@<TRIPOS>MOLECULE
OD7
   62    66     1     0     0
SMALL
abcg2


@<TRIPOS>ATOM
      1 N1           7.9980    -0.8200    18.3570 nc         1 OD7      -0.152400
      2 N3          10.1290    -0.4750    22.4720 n          1 OD7      -0.241400
      3 C4           6.3410     0.5500    18.6320 ca         1 OD7      -0.015600
      4 C5           8.6730    -1.2670    20.6650 c3         1 OD7       0.010600
      5 C6           9.6920    -0.2570    21.2100 c          1 OD7       0.592100
      6 C7          11.1280     0.4160    23.0740 c3         1 OD7       0.057700
      7 C8          12.3970    -0.3320    23.3990 ca         1 OD7       0.316300
      8 C10         13.9350    -1.2840    24.9700 ca         1 OD7      -0.073000
      9 C13          9.6850    -1.5740    23.2790 ca         1 OD7      -0.066000
     10 C15          8.3800    -2.3940    25.1260 ca         1 OD7      -0.100000
     11 C17          9.7350    -3.9070    23.8540 ca         1 OD7      -0.100000
     12 C20          8.8480    -4.7010    27.2230 c6         1 OD7      -0.107400
     13 C21          8.3650    -5.8810    28.0700 c6         1 OD7       0.146800
     14 C22          6.4430    -6.2180    26.6260 c6         1 OD7       0.146800
     15 C24          6.7890     0.2120    19.9160 ca         1 OD7      -0.027200
     16 O1          10.0670     0.6770    20.5100 o          1 OD7      -0.559100
     17 N2           7.8140    -0.6500    19.6900 na         1 OD7       0.060600
     18 N            7.1220    -0.1150    17.7180 nd         1 OD7      -0.207400
     19 C3           5.2600     1.4320    18.4770 ca         1 OD7       0.006000
     20 C2           4.6860     1.9370    19.6180 ca         1 OD7      -0.162000
     21 C25          6.2230     0.7170    21.0910 ca         1 OD7      -0.219000
     22 C1           5.1590     1.5870    20.9150 ca         1 OD7       0.174100
     23 O            4.4880     2.1740    21.9350 os         1 OD7      -0.343100
     24 C            4.9080     1.8890    23.2700 c3         1 OD7       0.147900
     25 N4          13.1040    -0.7910    22.3590 nb         1 OD7      -0.652000
     26 C12         14.2110    -1.4900    22.6090 ca         1 OD7       0.335900
     27 C11         14.6680    -1.7650    23.8940 ca         1 OD7      -0.159000
     28 C9          12.7790    -0.5560    24.7180 ca         1 OD7      -0.147000
     29 C18         10.1660    -2.8570    23.0510 ca         1 OD7      -0.111000
     30 C16          8.8380    -3.6970    24.9010 ca         1 OD7      -0.067300
     31 C14          8.7960    -1.3410    24.3250 ca         1 OD7      -0.111000
     32 C19          8.3830    -4.8480    25.7650 c6         1 OD7      -0.019400
     33 C23          6.8600    -5.0500    25.7290 c6         1 OD7      -0.107400
     34 N5           6.9160    -6.1010    28.0090 n7         1 OD7      -0.843400
     35 H1           8.0590    -1.6900    21.4570 h1         1 OD7       0.090200
     36 H2           9.2090    -2.0820    20.1790 h1         1 OD7       0.090200
     37 H3          11.3270     1.2080    22.3560 h1         1 OD7       0.076700
     38 H4          10.7080     0.8550    23.9790 h1         1 OD7       0.076700
     39 H5          14.2520    -1.4770    25.9870 ha         1 OD7       0.120000
     40 H6           7.6840    -2.1990    25.9320 ha         1 OD7       0.118500
     41 H7          10.1060    -4.9070    23.6650 ha         1 OD7       0.118500
     42 H9           8.4510    -3.7710    27.6410 hc         1 OD7       0.046200
     43 H10          8.8540    -6.7980    27.7220 h1         1 OD7       0.054950
     44 H11          8.6510    -5.7400    29.1140 h1         1 OD7       0.054950
     45 H12          5.3560    -6.3150    26.6390 h1         1 OD7       0.054950
     46 H13          6.8460    -7.1500    26.2140 h1         1 OD7       0.054950
     47 H14          4.8940     1.7050    17.4960 ha         1 OD7       0.137000
     48 H15          3.8510     2.6220    19.5600 ha         1 OD7       0.132000
     49 H16          6.5990     0.4400    22.0640 ha         1 OD7       0.125000
     50 H17          4.2490     2.4610    23.9180 h1         1 OD7       0.043367
     51 H18          4.8090     0.8240    23.4900 h1         1 OD7       0.043367
     52 H19          5.9430     2.2010    23.4260 h1         1 OD7       0.043367
     53 H20         14.7620    -1.8470    21.7450 h4         1 OD7       0.023100
     54 H21         15.5730    -2.3400    24.0390 ha         1 OD7       0.125000
     55 H22         12.1730    -0.1730    25.5280 ha         1 OD7       0.122000
     56 H23         10.8700    -3.0290    22.2470 ha         1 OD7       0.126500
     57 H24          8.4280    -0.3380    24.4990 ha         1 OD7       0.126500
     58 H25          8.8450    -5.7570    25.3650 hc         1 OD7       0.055700
     59 H26          6.3620    -4.1390    26.0740 hc         1 OD7       0.046200
     60 H27          6.5310    -5.2300    24.7010 hc         1 OD7       0.046200
     61 H28          6.4490    -5.3110    28.4460 hn         1 OD7       0.400000
     62 H8           9.9400    -4.6350    27.2620 hc         1 OD7       0.046200
@<TRIPOS>BOND
     1     1    17 1   
     2     1    18 2   
     3     2     5 1   
     4     2     6 1   
     5     2     9 1   
     6     3    15 ar  
     7     3    18 1   
     8     3    19 ar  
     9     4     5 1   
    10     4    17 1   
    11     4    35 1   
    12     4    36 1   
    13     5    16 2   
    14     6     7 1   
    15     6    37 1   
    16     6    38 1   
    17     7    25 ar  
    18     7    28 ar  
    19     8    27 ar  
    20     8    28 ar  
    21     8    39 1   
    22     9    29 ar  
    23     9    31 ar  
    24    10    30 ar  
    25    10    31 ar  
    26    10    40 1   
    27    11    29 ar  
    28    11    30 ar  
    29    11    41 1   
    30    12    13 1   
    31    12    32 1   
    32    12    42 1   
    33    12    62 1   
    34    13    34 1   
    35    13    43 1   
    36    13    44 1   
    37    14    33 1   
    38    14    34 1   
    39    14    45 1   
    40    14    46 1   
    41    15    17 1   
    42    15    21 ar  
    43    19    20 ar  
    44    19    47 1   
    45    20    22 ar  
    46    20    48 1   
    47    21    22 ar  
    48    21    49 1   
    49    22    23 1   
    50    23    24 1   
    51    24    50 1   
    52    24    51 1   
    53    24    52 1   
    54    25    26 ar  
    55    26    27 ar  
    56    26    53 1   
    57    27    54 1   
    58    28    55 1   
    59    29    56 1   
    60    30    32 1   
    61    31    57 1   
    62    32    33 1   
    63    32    58 1   
    64    33    59 1   
    65    33    60 1   
    66    34    61 1   
@<TRIPOS>SUBSTRUCTURE
     1 OD7         1 TEMP              0 ****  ****    0 ROOT
