@<TRIPOS>MOLECULE
OD9
   59    62     1     0     0
SMALL
No Charge or Current Charge


@<TRIPOS>ATOM
      1 C11         23.4710   -43.2060    29.5110 ca         1 OD9      -0.034000
      2 C10         22.0960   -43.4300    29.2800 ca         1 OD9      -0.281500
      3 C21         19.1640   -45.0660    29.5880 ca         1 OD9      -0.073000
      4 C2          14.0480   -41.0190    28.9040 ca         1 OD9      -0.167000
      5 C20         17.7680   -45.2400    29.5260 ca         1 OD9      -0.155000
      6 C22         18.0770   -40.1380    27.3250 ca         1 OD9      -0.088000
      7 C12         23.9890   -43.2930    30.8110 ca         1 OD9       0.108100
      8 C13         23.1350   -43.5980    31.8870 ca         1 OD9       0.093100
      9 C3          13.9170   -39.6400    28.6320 ca         1 OD9      -0.072300
     10 C18         17.4640   -43.2240    30.8510 ca         1 OD9       0.115100
     11 C5          16.4100   -39.1820    28.8280 ca         1 OD9      -0.072300
     12 C1          13.0540   -41.9260    28.4970 ca         1 OD9       0.111100
     13 C19         16.9140   -44.3160    30.1510 ca         1 OD9       0.057100
     14 C17         18.8550   -43.0440    30.8960 ca         1 OD9      -0.113000
     15 C8          18.9810   -40.2790    28.3950 ca         1 OD9      -0.107300
     16 C7          18.6020   -39.8390    29.6780 ca         1 OD9      -0.088000
     17 C6          17.3230   -39.2990    29.8940 ca         1 OD9      -0.107500
     18 C14         21.7670   -43.8150    31.6590 ca         1 OD9      -0.174000
     19 C24         12.7710   -39.1780    27.9570 ca         1 OD9      -0.105000
     20 C25         11.7700   -40.0770    27.5510 ca         1 OD9      -0.173000
     21 C9          20.3330   -40.9380    28.1670 c3         1 OD9       0.247100
     22 C23         16.8010   -39.5900    27.5390 ca         1 OD9      -0.107500
     23 C15         21.2080   -43.7470    30.3580 cp         1 OD9       0.057000
     24 C16         19.7310   -43.9480    30.2470 cp         1 OD9      -0.094000
     25 O6          20.9200   -44.5990    27.1620 o          1 OD9      -0.534000
     26 O1          13.2130   -43.2610    28.7650 oh         1 OD9      -0.522100
     27 O2          25.3190   -43.0800    31.0410 oh         1 OD9      -0.526100
     28 O4          16.6410   -42.3660    31.5180 oh         1 OD9      -0.532100
     29 O3          23.6420   -43.6780    33.1580 oh         1 OD9      -0.549100
     30 O7          22.3990   -42.5680    26.7550 o          1 OD9      -0.534000
     31 S           21.4500   -43.3060    27.5940 sy         1 OD9       1.144600
     32 N           20.1140   -42.3290    27.7600 n7         1 OD9      -0.854300
     33 C           11.9040   -41.4510    27.8170 ca         1 OD9       0.107100
     34 O           10.9170   -42.3090    27.4090 oh         1 OD9      -0.515100
     35 H10         24.1430   -42.9660    28.6890 ha         1 OD9       0.163000
     36 H18         19.8130   -45.8110    29.1310 ha         1 OD9       0.148000
     37 H17         17.3600   -46.1010    29.0010 ha         1 OD9       0.127000
     38 H19         18.3570   -40.4740    26.3290 ha         1 OD9       0.119000
     39 H14         19.2630   -42.2050    31.4530 ha         1 OD9       0.134000
     40 H6          19.2890   -39.9340    30.5160 ha         1 OD9       0.119000
     41 H5          17.0370   -38.9880    30.8960 ha         1 OD9       0.116000
     42 H13         21.1130   -44.0430    32.4970 ha         1 OD9       0.121000
     43 H21         12.6540   -38.1170    27.7440 ha         1 OD9       0.114000
     44 H22         10.8930   -39.7000    27.0310 ha         1 OD9       0.115000
     45 H8          20.8750   -40.3820    27.3890 h1         1 OD9       0.061200
     46 H7          20.9290   -40.8820    29.0900 h1         1 OD9       0.061200
     47 H20         16.1060   -39.5060    26.7060 ha         1 OD9       0.116000
     48 H1          14.0810   -43.3970    29.2060 ho         1 OD9       0.463000
     49 H11         25.4500   -43.1890    32.0100 ho         1 OD9       0.484000
     50 H15         15.7360   -42.7390    31.4370 ho         1 OD9       0.481000
     51 H12         22.9110   -43.9000    33.7760 ho         1 OD9       0.483000
     52 H9          19.6340   -42.7980    28.5240 hn         1 OD9       0.487000
     53 H           10.2160   -41.7890    26.9620 ho         1 OD9       0.458000
     54 O5          15.5550   -44.4920    30.1040 oh         1 OD9      -0.568100
     55 C4          15.0000   -38.6520    29.0670 c3         1 OD9       0.017200
     56 H2          14.9300   -41.3820    29.4240 ha         1 OD9       0.119000
     57 H3          14.8830   -37.7020    28.5300 hc         1 OD9       0.056700
     58 H4          14.8570   -38.4110    30.1270 hc         1 OD9       0.056700
     59 H16         15.3740   -45.4070    29.7870 ho         1 OD9       0.488000
@<TRIPOS>BOND
     1     1     2 ar  
     2     1     7 ar  
     3     1    35 1   
     4     2    23 ar  
     5     2    31 1   
     6     3     5 ar  
     7     3    24 ar  
     8     3    36 1   
     9     4     9 ar  
    10     4    12 ar  
    11     4    56 1   
    12     5    13 ar  
    13     5    37 1   
    14     6    15 ar  
    15     6    22 ar  
    16     6    38 1   
    17     7     8 ar  
    18     7    27 1   
    19     8    18 ar  
    20     8    29 1   
    21     9    19 ar  
    22     9    55 1   
    23    10    13 ar  
    24    10    14 ar  
    25    10    28 1   
    26    11    17 ar  
    27    11    22 ar  
    28    11    55 1   
    29    12    26 1   
    30    12    33 ar  
    31    13    54 1   
    32    14    24 ar  
    33    14    39 1   
    34    15    16 ar  
    35    15    21 1   
    36    16    17 ar  
    37    16    40 1   
    38    17    41 1   
    39    18    23 ar  
    40    18    42 1   
    41    19    20 ar  
    42    19    43 1   
    43    20    33 ar  
    44    20    44 1   
    45    21    32 1   
    46    21    45 1   
    47    21    46 1   
    48    22    47 1   
    49    23    24 1   
    50    25    31 2   
    51    26    48 1   
    52    27    49 1   
    53    28    50 1   
    54    29    51 1   
    55    30    31 2   
    56    31    32 1   
    57    32    52 1   
    58    33    34 1   
    59    34    53 1   
    60    54    59 1   
    61    55    57 1   
    62    55    58 1   
@<TRIPOS>SUBSTRUCTURE
     1 OD9         1 TEMP              0 ****  ****    0 ROOT
