@<TRIPOS>MOLECULE
OD9
   59    62     1     0     0
SMALL
abcg2


@<TRIPOS>ATOM
      1 C11         23.3470   -43.2070    29.4200 ca         1 OD9      -0.034000
      2 C10         21.9820   -43.4530    29.2920 ca         1 OD9      -0.281500
      3 C21         19.2120   -45.1970    29.6900 ca         1 OD9      -0.073000
      4 C2          14.0280   -40.8260    28.9520 ca         1 OD9      -0.167000
      5 C20         17.8380   -45.3970    29.6800 ca         1 OD9      -0.155000
      6 C22         18.1430   -39.8800    27.4090 ca         1 OD9      -0.088000
      7 C12         23.9800   -43.3640    30.6380 ca         1 OD9       0.108100
      8 C13         23.2220   -43.7530    31.7520 ca         1 OD9       0.093100
      9 C3          13.9200   -39.5230    28.4630 ca         1 OD9      -0.072300
     10 C18         17.5230   -43.4020    30.9930 ca         1 OD9       0.115100
     11 C5          16.3430   -38.9860    28.7510 ca         1 OD9      -0.072300
     12 C1          13.1100   -41.8050    28.6130 ca         1 OD9       0.111100
     13 C19         16.9890   -44.5060    30.3160 ca         1 OD9       0.057100
     14 C17         18.8960   -43.2140    31.0040 ca         1 OD9      -0.113000
     15 C8          18.8890   -40.1530    28.5560 ca         1 OD9      -0.107300
     16 C7          18.3630   -39.8070    29.7920 ca         1 OD9      -0.088000
     17 C6          17.1040   -39.2240    29.8870 ca         1 OD9      -0.107500
     18 C14         21.8640   -43.9880    31.6120 ca         1 OD9      -0.174000
     19 C24         12.8610   -39.2210    27.6220 ca         1 OD9      -0.105000
     20 C25         11.9260   -40.1950    27.2810 ca         1 OD9      -0.173000
     21 C9          20.2080   -40.8610    28.4540 c3         1 OD9       0.247100
     22 C23         16.8890   -39.3060    27.5070 ca         1 OD9      -0.107500
     23 C15         21.2150   -43.8520    30.3880 cp         1 OD9       0.057000
     24 C16         19.7510   -44.0950    30.3410 cp         1 OD9      -0.094000
     25 O6          20.7610   -44.4370    27.1510 o          1 OD9      -0.534000
     26 O1          13.1820   -43.0790    29.0530 oh         1 OD9      -0.522100
     27 O2          25.3000   -43.1260    30.7230 oh         1 OD9      -0.526100
     28 O4          16.7390   -42.5140    31.6380 oh         1 OD9      -0.532100
     29 O3          23.8930   -43.8730    32.9100 oh         1 OD9      -0.549100
     30 O7          22.2420   -42.4350    26.9000 o          1 OD9      -0.534000
     31 S           21.2690   -43.1840    27.6810 sy         1 OD9       1.144600
     32 N           19.9740   -42.1890    27.8820 n7         1 OD9      -0.854300
     33 C           12.0360   -41.4860    27.7660 ca         1 OD9       0.107100
     34 O           11.1730   -42.4820    27.4680 oh         1 OD9      -0.515100
     35 H10         23.9350   -42.8860    28.5710 ha         1 OD9       0.163000
     36 H18         19.8550   -45.9110    29.1960 ha         1 OD9       0.148000
     37 H17         17.4230   -46.2610    29.1720 ha         1 OD9       0.127000
     38 H19         18.5440   -40.1320    26.4350 ha         1 OD9       0.119000
     39 H14         19.2990   -42.3570    31.5300 ha         1 OD9       0.134000
     40 H6          18.9280   -40.0070    30.6940 ha         1 OD9       0.119000
     41 H5          16.7030   -38.9760    30.8630 ha         1 OD9       0.116000
     42 H13         21.2880   -44.2910    32.4800 ha         1 OD9       0.121000
     43 H21         12.7550   -38.2210    27.2190 ha         1 OD9       0.114000
     44 H22         11.1060   -39.9430    26.6170 ha         1 OD9       0.115000
     45 H8          20.8870   -40.3190    27.7940 h1         1 OD9       0.061200
     46 H7          20.6790   -40.9160    29.4420 h1         1 OD9       0.061200
     47 H20         16.3150   -39.1200    26.6070 ha         1 OD9       0.116000
     48 H1          13.9910   -43.2120    29.5620 ho         1 OD9       0.463000
     49 H11         25.6210   -43.2780    31.6200 ho         1 OD9       0.484000
     50 H15         15.8110   -42.7690    31.5830 ho         1 OD9       0.481000
     51 H12         23.3090   -44.1290    33.6340 ho         1 OD9       0.483000
     52 H9          19.1800   -42.6720    28.2900 hn         1 OD9       0.487000
     53 H           10.4890   -42.1570    26.8710 ho         1 OD9       0.458000
     54 O5          15.6420   -44.6350    30.3440 oh         1 OD9      -0.568100
     55 C4          14.9340   -38.4700    28.8480 c3         1 OD9       0.017200
     56 H2          14.8540   -41.0930    29.6050 ha         1 OD9       0.119000
     57 H3          14.8060   -37.6010    28.1990 hc         1 OD9       0.056700
     58 H4          14.7430   -38.1240    29.8680 hc         1 OD9       0.056700
     59 H16         15.3610   -45.4470    29.9060 ho         1 OD9       0.488000
@<TRIPOS>BOND
     1     1     2 ar  
     2     1     7 ar  
     3     1    35 1   
     4     2    23 ar  
     5     2    31 1   
     6     3     5 ar  
     7     3    24 ar  
     8     3    36 1   
     9     4     9 ar  
    10     4    12 ar  
    11     4    56 1   
    12     5    13 ar  
    13     5    37 1   
    14     6    15 ar  
    15     6    22 ar  
    16     6    38 1   
    17     7     8 ar  
    18     7    27 1   
    19     8    18 ar  
    20     8    29 1   
    21     9    19 ar  
    22     9    55 1   
    23    10    13 ar  
    24    10    14 ar  
    25    10    28 1   
    26    11    17 ar  
    27    11    22 ar  
    28    11    55 1   
    29    12    26 1   
    30    12    33 ar  
    31    13    54 1   
    32    14    24 ar  
    33    14    39 1   
    34    15    16 ar  
    35    15    21 1   
    36    16    17 ar  
    37    16    40 1   
    38    17    41 1   
    39    18    23 ar  
    40    18    42 1   
    41    19    20 ar  
    42    19    43 1   
    43    20    33 ar  
    44    20    44 1   
    45    21    32 1   
    46    21    45 1   
    47    21    46 1   
    48    22    47 1   
    49    23    24 1   
    50    25    31 2   
    51    26    48 1   
    52    27    49 1   
    53    28    50 1   
    54    29    51 1   
    55    30    31 2   
    56    31    32 1   
    57    32    52 1   
    58    33    34 1   
    59    34    53 1   
    60    54    59 1   
    61    55    57 1   
    62    55    58 1   
@<TRIPOS>SUBSTRUCTURE
     1 OD9         1 TEMP              0 ****  ****    0 ROOT
