@<TRIPOS>MOLECULE
ODA
   31    32     1     0     0
SMALL
bcc


@<TRIPOS>ATOM
      1 N           19.8590    33.3590    27.9770 n8         1 ODA      -0.886800
      2 CA          19.2200    32.0660    27.9240 c3         1 ODA       0.083500
      3 CB          17.8070    32.2170    27.3390 c3         1 ODA      -0.056400
      4 CG          17.1460    30.8930    26.9340 c3         1 ODA      -0.164400
      5 CD          17.3300    29.8310    27.9890 c          1 ODA       0.752500
      6 OE1         16.4270    29.4380    28.7090 o          1 ODA      -0.666500
      7 NE2         18.6140    29.4160    28.1760 n          1 ODA      -0.338400
      8 C           20.0000    31.0250    27.1160 c          1 ODA       0.670500
      9 O           20.8810    31.3420    26.3350 o          1 ODA      -0.667500
     10 N2          19.6030    29.7380    27.2720 n          1 ODA      -0.291400
     11 CA2         20.2490    28.6050    26.6200 c6         1 ODA      -0.041300
     12 CB2         20.7890    27.6680    27.7020 c6         1 ODA      -0.071400
     13 CG2         19.6890    27.2810    28.6820 c6         1 ODA      -0.092400
     14 CD2         19.0350    28.5320    29.2500 c6         1 ODA       0.109000
     15 C2          19.3360    27.8670    25.6020 c          1 ODA       0.935600
     16 O2          18.2070    28.3340    25.3750 o          1 ODA      -0.822800
     17 OXT         19.8600    26.8650    25.0830 o          1 ODA      -0.822800
     18 H           20.7440    33.2910    28.4640 hn         1 ODA       0.345300
     19 H2          20.0820    33.6700    27.0380 hn         1 ODA       0.345300
     20 HA1         19.1330    31.7030    28.9520 h1         1 ODA       0.071700
     21 HB2         17.1920    32.7410    28.0730 hc         1 ODA       0.044700
     22 HB3         17.8550    32.8570    26.4540 hc         1 ODA       0.044700
     23 HG2         16.0770    31.0460    26.7920 hc         1 ODA       0.093700
     24 HG3         17.5530    30.5330    25.9910 hc         1 ODA       0.093700
     25 HA2         21.0910    29.0130    26.0600 h1         1 ODA       0.077700
     26 HB23        21.2240    26.7880    27.2320 hc         1 ODA       0.038700
     27 HB22        21.5930    28.1730    28.2470 hc         1 ODA       0.038700
     28 HG23        18.9350    26.6630    28.1870 hc         1 ODA       0.046700
     29 HG22        20.0950    26.6880    29.5030 hc         1 ODA       0.046700
     30 HD22        19.7460    29.0710    29.8840 h1         1 ODA       0.042700
     31 HD23        18.1650    28.2900    29.8540 h1         1 ODA       0.042700
@<TRIPOS>BOND
     1     1     2 1   
     2     1    18 1   
     3     1    19 1   
     4     2     3 1   
     5     2     8 1   
     6     2    20 1   
     7     3     4 1   
     8     3    21 1   
     9     3    22 1   
    10     4     5 1   
    11     4    23 1   
    12     4    24 1   
    13     5     6 2   
    14     5     7 1   
    15     7    10 1   
    16     7    14 1   
    17     8     9 2   
    18     8    10 1   
    19    10    11 1   
    20    11    12 1   
    21    11    15 1   
    22    11    25 1   
    23    12    13 1   
    24    12    26 1   
    25    12    27 1   
    26    13    14 1   
    27    13    28 1   
    28    13    29 1   
    29    14    30 1   
    30    14    31 1   
    31    15    16 1   
    32    15    17 1   
@<TRIPOS>SUBSTRUCTURE
     1 ODA         1 TEMP              0 ****  ****    0 ROOT
