@<TRIPOS>MOLECULE
ODA
   31    32     1     0     0
SMALL
No Charge or Current Charge


@<TRIPOS>ATOM
      1 N           19.8300    33.5390    27.8850 n8         1 ODA      -0.886800
      2 CA          19.2010    32.1730    27.8380 c3         1 ODA       0.083500
      3 CB          17.7540    32.2900    27.2790 c3         1 ODA      -0.056400
      4 CG          17.0620    30.9320    26.9940 c3         1 ODA      -0.164400
      5 CD          17.3050    29.9430    28.1370 c          1 ODA       0.752500
      6 OE1         16.4330    29.7350    28.9750 o          1 ODA      -0.666500
      7 NE2         18.5980    29.3620    28.2700 n          1 ODA      -0.338400
      8 C           20.0210    31.0460    27.0930 c          1 ODA       0.670500
      9 O           20.9660    31.3320    26.3590 o          1 ODA      -0.667500
     10 N2          19.6360    29.6810    27.2760 n          1 ODA      -0.291400
     11 CA2         20.3130    28.5070    26.6340 c6         1 ODA      -0.041300
     12 CB2         20.7780    27.5170    27.7440 c6         1 ODA      -0.071400
     13 CG2         19.6360    27.1580    28.7320 c6         1 ODA      -0.092400
     14 CD2         18.9960    28.4290    29.3460 c6         1 ODA       0.109000
     15 C2          19.5150    27.7830    25.4960 c          1 ODA       0.935600
     16 O2          18.2950    27.9220    25.4660 o          1 ODA      -0.822800
     17 OXT         20.1320    27.5530    24.4610 o          1 ODA      -0.822800
     18 H           20.7610    33.4650    28.3110 hn         1 ODA       0.345300
     19 H2          20.0300    33.8430    26.9250 hn         1 ODA       0.345300
     20 HA1         19.1270    31.8350    28.8810 h1         1 ODA       0.071700
     21 HB2         17.1470    32.8550    27.9980 hc         1 ODA       0.044700
     22 HB3         17.7630    32.8740    26.3500 hc         1 ODA       0.044700
     23 HG2         15.9860    31.0850    26.8550 hc         1 ODA       0.093700
     24 HG3         17.5040    30.5340    26.0760 hc         1 ODA       0.093700
     25 HA2         21.2240    28.8650    26.1370 h1         1 ODA       0.077700
     26 HB23        21.1880    26.6040    27.2900 hc         1 ODA       0.038700
     27 HB22        21.6030    27.9760    28.3070 hc         1 ODA       0.038700
     28 HG23        18.8640    26.5790    28.2080 hc         1 ODA       0.046700
     29 HG22        20.0200    26.5130    29.5340 hc         1 ODA       0.046700
     30 HD22        19.7220    28.9300    30.0000 h1         1 ODA       0.042700
     31 HD23        18.1290    28.1450    29.9590 h1         1 ODA       0.042700
@<TRIPOS>BOND
     1     1     2 1   
     2     1    18 1   
     3     1    19 1   
     4     2     3 1   
     5     2     8 1   
     6     2    20 1   
     7     3     4 1   
     8     3    21 1   
     9     3    22 1   
    10     4     5 1   
    11     4    23 1   
    12     4    24 1   
    13     5     6 2   
    14     5     7 1   
    15     7    10 1   
    16     7    14 1   
    17     8     9 2   
    18     8    10 1   
    19    10    11 1   
    20    11    12 1   
    21    11    15 1   
    22    11    25 1   
    23    12    13 1   
    24    12    26 1   
    25    12    27 1   
    26    13    14 1   
    27    13    28 1   
    28    13    29 1   
    29    14    30 1   
    30    14    31 1   
    31    15    16 1   
    32    15    17 1   
@<TRIPOS>SUBSTRUCTURE
     1 ODA         1 TEMP              0 ****  ****    0 ROOT
