@<TRIPOS>MOLECULE
ODB
   93    96     1     0     0
SMALL
No Charge or Current Charge


@<TRIPOS>ATOM
      1 O2          -0.7010    -0.7940     2.1830 o          1 ODB      -0.599100
      2 C8           0.8590    -3.0500     2.9430 c5         1 ODB       0.122700
      3 C7           2.2150    -2.9060     2.2000 c3         1 ODB      -0.171400
      4 C6           2.5830    -1.4510     1.9220 c          1 ODB       0.614100
      5 N1           9.6830    -1.8270    -1.0280 nv         1 ODB      -1.070200
      6 C5           2.9710     0.2490     0.0830 c3         1 ODB       0.033700
      7 C4           4.0550     0.1450    -1.0200 c3         1 ODB      -0.078400
      8 C3           5.3920    -0.4610    -0.5270 c3         1 ODB      -0.093400
      9 C2           6.4700    -0.5140    -1.6290 c3         1 ODB       0.223800
     10 O1           2.8960    -0.6750     2.8140 o          1 ODB      -0.621100
     11 S1          -2.1600     3.3620     0.4460 ss         1 ODB      -0.463000
     12 C1           8.8150    -1.2520    -1.8170 c2         1 ODB       0.794100
     13 C10          0.2510    -5.3190     2.3820 c5         1 ODB      -0.094400
     14 C11         -0.8230    -4.4080     1.7390 c5         1 ODB       0.103000
     15 C12         -1.0370    -1.8750     1.7070 c          1 ODB       0.606100
     16 C13         -2.2430    -2.0270     0.7130 c3         1 ODB       0.081800
     17 C15         -3.3720    -1.3880    -1.9920 ca         1 ODB      -0.094300
     18 C16         -3.5720    -2.6560    -2.5790 ca         1 ODB      -0.113000
     19 C17         -2.9530    -2.9910    -3.7930 ca         1 ODB      -0.114000
     20 C18         -2.1270    -2.0590    -4.4370 ca         1 ODB      -0.098000
     21 C19         -1.9190    -0.7940    -3.8640 ca         1 ODB      -0.086000
     22 C20         -2.5350    -0.4450    -2.6440 ca         1 ODB      -0.055300
     23 C21         -2.2470     0.9300    -2.0440 c3         1 ODB       0.190900
     24 C22         -3.9730    -0.5470     1.7370 c3         1 ODB       0.206100
     25 C23         -4.8700     0.6920     1.5930 ca         1 ODB      -0.084300
     26 C24         -6.2590     0.4990     1.4370 ca         1 ODB      -0.110000
     27 C25         -7.1270     1.5930     1.2980 ca         1 ODB      -0.110000
     28 C26         -6.6160     2.8980     1.3180 ca         1 ODB      -0.101000
     29 C27         -5.2370     3.1070     1.4750 ca         1 ODB      -0.109000
     30 C28         -4.3520     2.0160     1.6070 ca         1 ODB      -0.046300
     31 C29         -2.8640     2.3030     1.7980 c3         1 ODB       0.094900
     32 C30         -0.3630     3.0680     0.7950 c3         1 ODB       0.056600
     33 C31          0.5260     3.2120    -0.4650 c3         1 ODB       0.043700
     34 C32          0.9170     4.6890    -0.7510 c          1 ODB       0.604100
     35 C33          1.7010     0.9770    -0.4300 c          1 ODB       0.586100
     36 C9           0.6820    -4.4530     3.5930 c5         1 ODB      -0.091400
     37 N2           8.9350    -0.9800    -3.0260 n2         1 ODB      -0.894100
     38 N3           7.7160    -1.0840    -1.1000 nu         1 ODB      -0.904400
     39 N4           2.6050    -1.0940     0.5930 ns         1 ODB      -0.497900
     40 N5          -0.3060    -3.0460     2.0230 n          1 ODB      -0.428800
     41 N6          -3.2030    -0.8850     0.5090 n3         1 ODB      -0.695600
     42 N7          -0.0980     5.5750    -0.8600 nt         1 ODB      -0.598000
     43 N8           1.7260     2.3530    -0.3310 ns         1 ODB      -0.471900
     44 O3          -3.3610     1.8190    -2.1910 oh         1 ODB      -0.679000
     45 O4           2.0700     5.0740    -0.8700 o          1 ODB      -0.616100
     46 O5           0.7230     0.3830    -0.8650 o          1 ODB      -0.602100
     47 H1           0.7870    -2.2670     3.7130 h1         1 ODB       0.095700
     48 H2           3.0080    -3.3140     2.8370 hc         1 ODB       0.065700
     49 H3           2.1920    -3.4700     1.2610 hc         1 ODB       0.065700
     50 H4          10.6160    -1.8450    -1.4170 hn         1 ODB       0.451500
     51 H5           9.6450    -1.4410    -0.0960 hn         1 ODB       0.451500
     52 H6           3.3740     0.8520     0.9070 h1         1 ODB       0.086700
     53 H7           3.6670    -0.4550    -1.8530 hc         1 ODB       0.068200
     54 H8           4.2500     1.1480    -1.4200 hc         1 ODB       0.068200
     55 H9           5.7670     0.1350     0.3150 hc         1 ODB       0.042200
     56 H10          5.2160    -1.4770    -0.1510 hc         1 ODB       0.042200
     57 H11          6.1000    -1.1230    -2.4660 h1         1 ODB       0.055200
     58 H12          6.6510     0.5030    -2.0060 h1         1 ODB       0.055200
     59 H13         -0.1540    -6.2930     2.6790 hc         1 ODB       0.056700
     60 H14          1.0840    -5.5090     1.6960 hc         1 ODB       0.056700
     61 H15         -0.9260    -4.5980     0.6620 h1         1 ODB       0.045700
     62 H16         -1.8000    -4.5570     2.2170 h1         1 ODB       0.045700
     63 H17         -1.7720    -2.2970    -0.2390 h1         1 ODB       0.055700
     64 H18         -2.8180    -2.9050     1.0310 h1         1 ODB       0.055700
     65 H19         -4.6830    -0.1600    -0.8430 h1         1 ODB       0.043700
     66 H20         -4.8110    -1.8680    -0.4650 h1         1 ODB       0.043700
     67 H21         -4.2120    -3.3880    -2.0900 ha         1 ODB       0.101000
     68 H22         -3.1140    -3.9720    -4.2350 ha         1 ODB       0.112000
     69 H23         -1.6460    -2.3160    -5.3790 ha         1 ODB       0.116000
     70 H24         -1.2720    -0.0810    -4.3700 ha         1 ODB       0.130000
     71 H25         -1.9870     0.8130    -0.9840 h1         1 ODB       0.046700
     72 H26         -1.3620     1.3590    -2.5330 h1         1 ODB       0.046700
     73 H27         -3.2950    -0.3870     2.5850 h1         1 ODB       0.040700
     74 H28         -4.6020    -1.4030     2.0170 h1         1 ODB       0.040700
     75 H29         -6.6700    -0.5090     1.4190 ha         1 ODB       0.108000
     76 H30         -8.1960     1.4290     1.1760 ha         1 ODB       0.116000
     77 H31         -7.2870     3.7480     1.2140 ha         1 ODB       0.118000
     78 H32         -4.8520     4.1240     1.4960 ha         1 ODB       0.128000
     79 H33         -2.2920     1.3700     1.8250 h1         1 ODB       0.092700
     80 H34         -2.7140     2.8070     2.7620 h1         1 ODB       0.092700
     81 H35         -0.0160     3.7410     1.5900 h1         1 ODB       0.089700
     82 H36         -0.2670     2.0400     1.1700 h1         1 ODB       0.089700
     83 H37         -0.0420     2.8640    -1.3350 h1         1 ODB       0.078700
     84 H38          1.5950    -4.8210     4.0750 hc         1 ODB       0.060700
     85 H39         -0.0990    -4.4330     4.3620 hc         1 ODB       0.060700
     86 H40          9.8730    -1.2680    -3.3200 hn         1 ODB       0.378400
     87 H42          7.6200    -1.7950    -0.3880 hn         1 ODB       0.462000
     88 H43          2.3010    -1.7950    -0.0720 hn         1 ODB       0.320500
     89 H45         -1.0510     5.2640    -0.7310 hn         1 ODB       0.324000
     90 H46          0.1080     6.5460    -1.0390 hn         1 ODB       0.324000
     91 H47          2.5900     2.7820    -0.0140 hn         1 ODB       0.345500
     92 H48         -3.2930     2.4460    -1.4350 ho         1 ODB       0.462000
     93 C14         -4.0890    -1.0670    -0.6750 c3         1 ODB       0.203100
@<TRIPOS>BOND
     1     1    15 2   
     2     2     3 1   
     3     2    36 1   
     4     2    40 1   
     5     2    47 1   
     6     3     4 1   
     7     3    48 1   
     8     3    49 1   
     9     4    10 2   
    10     4    39 1   
    11     5    12 1   
    12     5    50 1   
    13     5    51 1   
    14     6     7 1   
    15     6    35 1   
    16     6    39 1   
    17     6    52 1   
    18     7     8 1   
    19     7    53 1   
    20     7    54 1   
    21     8     9 1   
    22     8    55 1   
    23     8    56 1   
    24     9    38 1   
    25     9    57 1   
    26     9    58 1   
    27    11    31 1   
    28    11    32 1   
    29    12    37 2   
    30    12    38 1   
    31    13    14 1   
    32    13    36 1   
    33    13    59 1   
    34    13    60 1   
    35    14    40 1   
    36    14    61 1   
    37    14    62 1   
    38    15    16 1   
    39    15    40 1   
    40    16    41 1   
    41    16    63 1   
    42    16    64 1   
    43    17    18 ar  
    44    17    22 ar  
    45    17    93 1   
    46    18    19 ar  
    47    18    67 1   
    48    19    20 ar  
    49    19    68 1   
    50    20    21 ar  
    51    20    69 1   
    52    21    22 ar  
    53    21    70 1   
    54    22    23 1   
    55    23    44 1   
    56    23    71 1   
    57    23    72 1   
    58    24    25 1   
    59    24    41 1   
    60    24    73 1   
    61    24    74 1   
    62    25    26 ar  
    63    25    30 ar  
    64    26    27 ar  
    65    26    75 1   
    66    27    28 ar  
    67    27    76 1   
    68    28    29 ar  
    69    28    77 1   
    70    29    30 ar  
    71    29    78 1   
    72    30    31 1   
    73    31    79 1   
    74    31    80 1   
    75    32    33 1   
    76    32    81 1   
    77    32    82 1   
    78    33    34 1   
    79    33    43 1   
    80    33    83 1   
    81    34    42 1   
    82    34    45 2   
    83    35    43 1   
    84    35    46 2   
    85    36    84 1   
    86    36    85 1   
    87    37    86 1   
    88    38    87 1   
    89    39    88 1   
    90    41    93 1   
    91    42    89 1   
    92    42    90 1   
    93    43    91 1   
    94    44    92 1   
    95    65    93 1   
    96    66    93 1   
@<TRIPOS>SUBSTRUCTURE
     1 ODB         1 TEMP              0 ****  ****    0 ROOT
