@<TRIPOS>MOLECULE
ODB
   93    96     1     0     0
SMALL
abcg2


@<TRIPOS>ATOM
      1 O2          -0.5300    -0.5150     1.4540 o          1 ODB      -0.599100
      2 C8           0.7140    -2.4380     3.0130 c5         1 ODB       0.122700
      3 C7           2.0920    -2.3240     2.3480 c3         1 ODB      -0.171400
      4 C6           2.4290    -0.9350     1.8580 c          1 ODB       0.614100
      5 N1           9.7970    -2.5790    -1.1680 nv         1 ODB      -1.070200
      6 C5           3.2730     0.3660    -0.0590 c3         1 ODB       0.033700
      7 C4           4.2950     0.0300    -1.1350 c3         1 ODB      -0.078400
      8 C3           5.5140    -0.6890    -0.5690 c3         1 ODB      -0.093400
      9 C2           6.5760    -0.9190    -1.6330 c3         1 ODB       0.223800
     10 O1           2.4570     0.0240     2.6210 o          1 ODB      -0.621100
     11 S1          -2.2190     3.3930     1.2190 ss         1 ODB      -0.463000
     12 C1           8.7280    -2.0530    -1.8630 c2         1 ODB       0.794100
     13 C10          0.2250    -4.7800     2.9310 c5         1 ODB      -0.094400
     14 C11         -0.7560    -4.0850     1.9930 c5         1 ODB       0.103000
     15 C12         -0.9190    -1.6700     1.3500 c          1 ODB       0.606100
     16 C13         -2.0410    -2.0520     0.3930 c3         1 ODB       0.081800
     17 C15         -3.1820    -0.9500    -2.1940 ca         1 ODB      -0.094300
     18 C16         -2.7410    -1.9560    -3.0440 ca         1 ODB      -0.113000
     19 C17         -2.0810    -1.6580    -4.2300 ca         1 ODB      -0.114000
     20 C18         -1.8590    -0.3340    -4.5690 ca         1 ODB      -0.098000
     21 C19         -2.3040     0.6840    -3.7320 ca         1 ODB      -0.086000
     22 C20         -2.9670     0.3910    -2.5480 ca         1 ODB      -0.055300
     23 C21         -3.4790     1.4610    -1.6300 c3         1 ODB       0.190900
     24 C22         -3.8640    -0.9380     1.4850 c3         1 ODB       0.206100
     25 C23         -4.7720     0.2700     1.5010 ca         1 ODB      -0.084300
     26 C24         -6.1420     0.0820     1.3420 ca         1 ODB      -0.110000
     27 C25         -7.0290     1.1490     1.3400 ca         1 ODB      -0.110000
     28 C26         -6.5420     2.4350     1.5080 ca         1 ODB      -0.101000
     29 C27         -5.1800     2.6380     1.6810 ca         1 ODB      -0.109000
     30 C28         -4.2820     1.5740     1.6750 ca         1 ODB      -0.046300
     31 C29         -2.8150     1.8040     1.9030 c3         1 ODB       0.094900
     32 C30         -0.4400     3.0540     1.3260 c3         1 ODB       0.056600
     33 C31          0.1680     2.5030     0.0290 c3         1 ODB       0.043700
     34 C32          0.4710     3.6700    -0.9190 c          1 ODB       0.604100
     35 C33          2.1030     1.1930    -0.6000 c          1 ODB       0.586100
     36 C9           0.6100    -3.6740     3.9060 c5         1 ODB      -0.091400
     37 N2           8.6050    -2.0390    -3.1400 n2         1 ODB      -0.894100
     38 N3           7.7110    -1.6080    -1.0640 nu         1 ODB      -0.904400
     39 N4           2.7710    -0.8440     0.5620 ns         1 ODB      -0.497900
     40 N5          -0.3540    -2.6760     2.0420 n          1 ODB      -0.428800
     41 N6          -3.0610    -1.0340     0.2680 n3         1 ODB      -0.695600
     42 N7          -0.4180     3.8620    -1.8940 nt         1 ODB      -0.598000
     43 N8           1.3980     1.8250     0.3480 ns         1 ODB      -0.471900
     44 O3          -3.1520     2.7530    -2.0840 oh         1 ODB      -0.679000
     45 O4           1.4440     4.3850    -0.7320 o          1 ODB      -0.616100
     46 O5           1.8300     1.2650    -1.7870 o          1 ODB      -0.602100
     47 H1           0.5120    -1.5260     3.5760 h1         1 ODB       0.095700
     48 H2           2.8540    -2.5600     3.0960 hc         1 ODB       0.065700
     49 H3           2.1920    -3.0670     1.5540 hc         1 ODB       0.065700
     50 H4          10.6640    -2.6180    -1.6790 hn         1 ODB       0.451500
     51 H5           9.9330    -2.2650    -0.2200 hn         1 ODB       0.451500
     52 H6           3.7660     0.9530     0.7220 h1         1 ODB       0.086700
     53 H7           3.8300    -0.5740    -1.9190 hc         1 ODB       0.068200
     54 H8           4.6100     0.9630    -1.6100 hc         1 ODB       0.068200
     55 H9           5.9360    -0.0930     0.2480 hc         1 ODB       0.042200
     56 H10          5.2240    -1.6510    -0.1400 hc         1 ODB       0.042200
     57 H11          6.1670    -1.5300    -2.4390 h1         1 ODB       0.055200
     58 H12          6.8660     0.0390    -2.0830 h1         1 ODB       0.055200
     59 H13         -0.2280    -5.6430     3.4160 hc         1 ODB       0.056700
     60 H14          1.1010    -5.1330     2.3840 hc         1 ODB       0.056700
     61 H15         -0.7080    -4.4820     0.9790 h1         1 ODB       0.045700
     62 H16         -1.7800    -4.2050     2.3540 h1         1 ODB       0.045700
     63 H17         -1.5640    -2.1970    -0.5810 h1         1 ODB       0.055700
     64 H18         -2.4810    -3.0230     0.6570 h1         1 ODB       0.055700
     65 H19         -4.8010    -0.7090    -0.8270 h1         1 ODB       0.043700
     66 H20         -4.2130    -2.3510    -0.9400 h1         1 ODB       0.043700
     67 H21         -2.9170    -2.9900    -2.7710 ha         1 ODB       0.101000
     68 H22         -1.7440    -2.4560    -4.8800 ha         1 ODB       0.112000
     69 H23         -1.3440    -0.0850    -5.4880 ha         1 ODB       0.116000
     70 H24         -2.1290     1.7120    -4.0190 ha         1 ODB       0.130000
     71 H25         -4.5690     1.3590    -1.5270 h1         1 ODB       0.046700
     72 H26         -3.0610     1.2780    -0.6390 h1         1 ODB       0.046700
     73 H27         -3.1870    -0.8950     2.3420 h1         1 ODB       0.040700
     74 H28         -4.4770    -1.8410     1.6300 h1         1 ODB       0.040700
     75 H29         -6.5200    -0.9260     1.2120 ha         1 ODB       0.108000
     76 H30         -8.0890     0.9750     1.2090 ha         1 ODB       0.116000
     77 H31         -7.2180     3.2800     1.5120 ha         1 ODB       0.118000
     78 H32         -4.8180     3.6480     1.8310 ha         1 ODB       0.128000
     79 H33         -2.2260     1.0120     1.4440 h1         1 ODB       0.092700
     80 H34         -2.5960     1.8020     2.9740 h1         1 ODB       0.092700
     81 H35          0.0680     3.9690     1.6300 h1         1 ODB       0.089700
     82 H36         -0.3040     2.3290     2.1300 h1         1 ODB       0.089700
     83 H37         -0.5340     1.8000    -0.4320 h1         1 ODB       0.078700
     84 H38          1.5330    -3.8750     4.4480 hc         1 ODB       0.060700
     85 H39         -0.1840    -3.5270     4.6410 hc         1 ODB       0.060700
     86 H40          9.4160    -2.4620    -3.5790 hn         1 ODB       0.378400
     87 H42          7.9710    -1.3060    -0.1370 hn         1 ODB       0.462000
     88 H43          2.6570    -1.6540    -0.0270 hn         1 ODB       0.320500
     89 H45         -1.2270     3.2690    -2.0210 hn         1 ODB       0.324000
     90 H46         -0.3210     4.6530    -2.5110 hn         1 ODB       0.324000
     91 H47          1.6040     1.6110     1.3140 hn         1 ODB       0.345500
     92 H48         -3.2650     3.3450    -1.3300 ho         1 ODB       0.462000
     93 C14         -3.8860    -1.2990    -0.9080 c3         1 ODB       0.203100
@<TRIPOS>BOND
     1     1    15 2   
     2     2     3 1   
     3     2    36 1   
     4     2    40 1   
     5     2    47 1   
     6     3     4 1   
     7     3    48 1   
     8     3    49 1   
     9     4    10 2   
    10     4    39 1   
    11     5    12 1   
    12     5    50 1   
    13     5    51 1   
    14     6     7 1   
    15     6    35 1   
    16     6    39 1   
    17     6    52 1   
    18     7     8 1   
    19     7    53 1   
    20     7    54 1   
    21     8     9 1   
    22     8    55 1   
    23     8    56 1   
    24     9    38 1   
    25     9    57 1   
    26     9    58 1   
    27    11    31 1   
    28    11    32 1   
    29    12    37 2   
    30    12    38 1   
    31    13    14 1   
    32    13    36 1   
    33    13    59 1   
    34    13    60 1   
    35    14    40 1   
    36    14    61 1   
    37    14    62 1   
    38    15    16 1   
    39    15    40 1   
    40    16    41 1   
    41    16    63 1   
    42    16    64 1   
    43    17    18 ar  
    44    17    22 ar  
    45    17    93 1   
    46    18    19 ar  
    47    18    67 1   
    48    19    20 ar  
    49    19    68 1   
    50    20    21 ar  
    51    20    69 1   
    52    21    22 ar  
    53    21    70 1   
    54    22    23 1   
    55    23    44 1   
    56    23    71 1   
    57    23    72 1   
    58    24    25 1   
    59    24    41 1   
    60    24    73 1   
    61    24    74 1   
    62    25    26 ar  
    63    25    30 ar  
    64    26    27 ar  
    65    26    75 1   
    66    27    28 ar  
    67    27    76 1   
    68    28    29 ar  
    69    28    77 1   
    70    29    30 ar  
    71    29    78 1   
    72    30    31 1   
    73    31    79 1   
    74    31    80 1   
    75    32    33 1   
    76    32    81 1   
    77    32    82 1   
    78    33    34 1   
    79    33    43 1   
    80    33    83 1   
    81    34    42 1   
    82    34    45 2   
    83    35    43 1   
    84    35    46 2   
    85    36    84 1   
    86    36    85 1   
    87    37    86 1   
    88    38    87 1   
    89    39    88 1   
    90    41    93 1   
    91    42    89 1   
    92    42    90 1   
    93    43    91 1   
    94    44    92 1   
    95    65    93 1   
    96    66    93 1   
@<TRIPOS>SUBSTRUCTURE
     1 ODB         1 TEMP              0 ****  ****    0 ROOT
