@<TRIPOS>MOLECULE
ODC
   52    53     1     0     0
SMALL
bcc


@<TRIPOS>ATOM
      1 O2         -16.1800   -19.8680    -2.3920 o          1 ODC      -0.609100
      2 O3         -22.2650   -26.8250    -2.0550 o          1 ODC      -0.570100
      3 C7         -19.0520   -20.8180     2.6070 ca         1 ODC      -0.011600
      4 C16        -21.7890   -26.3300    -3.0600 c          1 ODC       0.663100
      5 C19        -17.7420   -21.9980    -3.0350 c6         1 ODC       0.095500
      6 C1         -14.5950   -19.3930    -0.2600 c3         1 ODC      -0.097100
      7 C2         -15.0240   -20.8300    -0.5520 c3         1 ODC       0.102800
      8 C3         -13.7900   -21.6220    -0.9870 c3         1 ODC      -0.097100
      9 O1         -15.4730   -21.4510     0.6530 os         1 ODC      -0.333900
     10 C4         -16.6480   -21.1550     1.2450 ca         1 ODC       0.150100
     11 C5         -17.5740   -20.2090     0.8120 ca         1 ODC      -0.183000
     12 C6         -18.7740   -20.0490     1.4930 ca         1 ODC      -0.087000
     13 C8         -18.1290   -21.7490     3.0620 ca         1 ODC      -0.087000
     14 C9         -16.9360   -21.9130     2.3820 ca         1 ODC      -0.183000
     15 C10        -16.0630   -20.8730    -1.7010 c          1 ODC       0.651100
     16 N1         -16.7650   -21.9960    -1.9530 n          1 ODC      -0.465800
     17 C11        -16.6840   -23.2980    -1.3010 c6         1 ODC       0.095500
     18 C12        -18.0390   -23.7160    -0.7420 c6         1 ODC      -0.094400
     19 C13        -19.1390   -23.6960    -1.8010 c6         1 ODC      -0.057700
     20 C14        -20.4880   -24.0170    -1.1630 c3         1 ODC      -0.098400
     21 C15        -21.6690   -24.0640    -2.1290 c3         1 ODC       0.105000
     22 N2         -21.5120   -25.0270    -3.2010 ns         1 ODC      -0.577900
     23 C17        -21.4150   -27.1660    -4.2750 c3         1 ODC      -0.056000
     24 C18        -19.1300   -22.3470    -2.5160 c6         1 ODC      -0.094400
     25 H1         -17.4310   -22.7410    -3.7790 h1         1 ODC       0.056950
     26 H2         -17.7460   -21.0300    -3.5250 h1         1 ODC       0.056950
     27 H3         -13.8900   -19.4050     0.5720 hc         1 ODC       0.054700
     28 H4         -14.0880   -18.9590    -1.1190 hc         1 ODC       0.054700
     29 H5         -15.4180   -18.7340     0.0070 hc         1 ODC       0.054700
     30 H6         -13.0200   -21.5630    -0.2170 hc         1 ODC       0.054700
     31 H7         -14.0010   -22.6730    -1.1780 hc         1 ODC       0.054700
     32 H8         -13.3820   -21.1910    -1.9000 hc         1 ODC       0.054700
     33 H9         -17.4040   -19.5770    -0.0460 ha         1 ODC       0.151500
     34 H10        -19.4860   -19.3150     1.1400 ha         1 ODC       0.148000
     35 H11        -18.3360   -22.3520     3.9360 ha         1 ODC       0.148000
     36 H12        -16.2200   -22.6480     2.7270 ha         1 ODC       0.151500
     37 H13        -16.3620   -24.0240    -2.0550 h1         1 ODC       0.056950
     38 H14        -15.9400   -23.3100    -0.5150 h1         1 ODC       0.056950
     39 H15        -18.3150   -23.0490     0.0810 hc         1 ODC       0.051950
     40 H16        -17.9450   -24.7180    -0.3170 hc         1 ODC       0.051950
     41 H17        -18.9060   -24.4730    -2.5420 hc         1 ODC       0.041700
     42 H18        -20.7110   -23.2620    -0.4020 hc         1 ODC       0.058200
     43 H19        -20.4210   -24.9740    -0.6370 hc         1 ODC       0.058200
     44 H20        -21.8290   -23.0910    -2.5910 h1         1 ODC       0.056700
     45 H21        -22.5800   -24.2990    -1.5780 h1         1 ODC       0.056700
     46 H22        -21.1210   -24.6990    -4.0710 hn         1 ODC       0.312500
     47 H23        -21.4540   -26.5970    -5.2020 h1         1 ODC       0.076200
     48 H24        -20.4000   -27.5450    -4.1490 h1         1 ODC       0.076200
     49 H26        -19.4720   -21.5620    -1.8340 hc         1 ODC       0.051950
     50 H27        -19.8150   -22.3470    -3.3670 hc         1 ODC       0.051950
     51 CL2        -22.5020   -28.5650    -4.4400 cl         1 ODC      -0.147400
     52 CL1        -20.5580   -20.6150     3.4450 cl         1 ODC      -0.112400
@<TRIPOS>BOND
     1     1    15 2   
     2     2     4 2   
     3     3    12 ar  
     4     3    13 ar  
     5     3    52 1   
     6     4    22 1   
     7     4    23 1   
     8     5    16 1   
     9     5    24 1   
    10     5    25 1   
    11     5    26 1   
    12     6     7 1   
    13     6    27 1   
    14     6    28 1   
    15     6    29 1   
    16     7     8 1   
    17     7     9 1   
    18     7    15 1   
    19     8    30 1   
    20     8    31 1   
    21     8    32 1   
    22     9    10 1   
    23    10    11 ar  
    24    10    14 ar  
    25    11    12 ar  
    26    11    33 1   
    27    12    34 1   
    28    13    14 ar  
    29    13    35 1   
    30    14    36 1   
    31    15    16 1   
    32    16    17 1   
    33    17    18 1   
    34    17    37 1   
    35    17    38 1   
    36    18    19 1   
    37    18    39 1   
    38    18    40 1   
    39    19    20 1   
    40    19    24 1   
    41    19    41 1   
    42    20    21 1   
    43    20    42 1   
    44    20    43 1   
    45    21    22 1   
    46    21    44 1   
    47    21    45 1   
    48    22    46 1   
    49    23    47 1   
    50    23    48 1   
    51    23    51 1   
    52    24    49 1   
    53    24    50 1   
@<TRIPOS>SUBSTRUCTURE
     1 ODC         1 TEMP              0 ****  ****    0 ROOT
