@<TRIPOS>MOLECULE
ODC
   52    53     1     0     0
SMALL
No Charge or Current Charge


@<TRIPOS>ATOM
      1 O2         -16.3450   -19.8140    -2.3070 o          1 ODC      -0.609100
      2 O3         -22.0730   -26.7830    -1.9200 o          1 ODC      -0.570100
      3 C7         -19.0150   -20.8560     2.8130 ca         1 ODC       0.080000
      4 C16        -21.7270   -26.3610    -3.0170 c          1 ODC       0.596100
      5 C19        -17.6650   -22.0930    -3.2520 c6         1 ODC       0.095500
      6 C1         -14.5310   -19.3820    -0.1790 c3         1 ODC      -0.097100
      7 C2         -14.9930   -20.8230    -0.5490 c3         1 ODC       0.126000
      8 C3         -13.7430   -21.6350    -0.9830 c3         1 ODC      -0.097100
      9 O1         -15.4370   -21.4490     0.6860 os         1 ODC      -0.357100
     10 C4         -16.6190   -21.1880     1.3590 ca         1 ODC       0.150100
     11 C5         -17.5720   -20.2230     0.9550 ca         1 ODC      -0.165000
     12 C6         -18.7650   -20.0620     1.6830 ca         1 ODC      -0.069000
     13 C8         -18.0730   -21.8120     3.2220 ca         1 ODC      -0.069000
     14 C9         -16.8800   -21.9740     2.4940 ca         1 ODC      -0.165000
     15 C10        -16.0720   -20.8510    -1.7080 c          1 ODC       0.584100
     16 N1         -16.6890   -22.0680    -2.1300 n          1 ODC      -0.398800
     17 C11        -16.7070   -23.3430    -1.3600 c6         1 ODC       0.095500
     18 C12        -18.1150   -23.6180    -0.7770 c6         1 ODC      -0.094400
     19 C13        -19.2010   -23.6190    -1.8870 c6         1 ODC      -0.057700
     20 C14        -20.6200   -23.8360    -1.2740 c3         1 ODC      -0.098400
     21 C15        -21.7880   -23.9480    -2.2810 c3         1 ODC       0.105000
     22 N2         -21.5910   -25.0120    -3.2710 ns         1 ODC      -0.510900
     23 C17        -21.4160   -27.2720    -4.2170 c3         1 ODC       0.020600
     24 C18        -19.1030   -22.3110    -2.7230 c6         1 ODC      -0.094400
     25 H1         -17.4010   -22.9130    -3.9360 h1         1 ODC       0.056950
     26 H2         -17.6260   -21.1660    -3.8410 h1         1 ODC       0.056950
     27 H3         -13.8210   -19.4050     0.6570 hc         1 ODC       0.054700
     28 H4         -14.0290   -18.9060    -1.0300 hc         1 ODC       0.054700
     29 H5         -15.3670   -18.7390     0.1110 hc         1 ODC       0.054700
     30 H6         -12.9880   -21.6440    -0.1880 hc         1 ODC       0.054700
     31 H7         -13.9890   -22.6740    -1.2230 hc         1 ODC       0.054700
     32 H8         -13.2880   -21.1890    -1.8760 hc         1 ODC       0.054700
     33 H9         -17.4210   -19.5920     0.0890 ha         1 ODC       0.133500
     34 H10        -19.4980   -19.3220     1.3700 ha         1 ODC       0.130000
     35 H11        -18.2670   -22.4280     4.0960 ha         1 ODC       0.130000
     36 H12        -16.1550   -22.7210     2.8060 ha         1 ODC       0.133500
     37 H13        -16.4370   -24.1640    -2.0400 h1         1 ODC       0.056950
     38 H14        -15.9690   -23.3620    -0.5530 h1         1 ODC       0.056950
     39 H15        -18.3570   -22.8560    -0.0250 hc         1 ODC       0.051950
     40 H16        -18.1110   -24.5820    -0.2520 hc         1 ODC       0.051950
     41 H17        -19.0040   -24.4730    -2.5510 hc         1 ODC       0.041700
     42 H18        -20.8490   -23.0160    -0.5820 hc         1 ODC       0.058200
     43 H19        -20.6120   -24.7460    -0.6620 hc         1 ODC       0.058200
     44 H20        -21.9100   -22.9940    -2.8110 h1         1 ODC       0.056700
     45 H21        -22.7210   -24.1400    -1.7340 h1         1 ODC       0.056700
     46 H22        -21.3090   -24.7490    -4.2090 hn         1 ODC       0.312500
     47 H23        -22.1130   -27.0310    -5.0290 h1         1 ODC       0.076200
     48 H24        -20.3930   -27.0700    -4.5530 h1         1 ODC       0.076200
     49 H26        -19.3990   -21.4490    -2.1090 hc         1 ODC       0.051950
     50 H27        -19.7950   -22.3460    -3.5740 hc         1 ODC       0.051950
     51 Cl2        -21.5500   -29.0620    -3.8700 cl         1 ODC      -0.224000
     52 Cl1        -20.5110   -20.6550     3.7160 cl         1 ODC      -0.204000
@<TRIPOS>BOND
     1     1    15 2   
     2     2     4 2   
     3     3    12 ar  
     4     3    13 ar  
     5     3    52 1   
     6     4    22 1   
     7     4    23 1   
     8     5    16 1   
     9     5    24 1   
    10     5    25 1   
    11     5    26 1   
    12     6     7 1   
    13     6    27 1   
    14     6    28 1   
    15     6    29 1   
    16     7     8 1   
    17     7     9 1   
    18     7    15 1   
    19     8    30 1   
    20     8    31 1   
    21     8    32 1   
    22     9    10 1   
    23    10    11 ar  
    24    10    14 ar  
    25    11    12 ar  
    26    11    33 1   
    27    12    34 1   
    28    13    14 ar  
    29    13    35 1   
    30    14    36 1   
    31    15    16 1   
    32    16    17 1   
    33    17    18 1   
    34    17    37 1   
    35    17    38 1   
    36    18    19 1   
    37    18    39 1   
    38    18    40 1   
    39    19    20 1   
    40    19    24 1   
    41    19    41 1   
    42    20    21 1   
    43    20    42 1   
    44    20    43 1   
    45    21    22 1   
    46    21    44 1   
    47    21    45 1   
    48    22    46 1   
    49    23    47 1   
    50    23    48 1   
    51    23    51 1   
    52    24    49 1   
    53    24    50 1   
@<TRIPOS>SUBSTRUCTURE
     1 ODC         1 TEMP              0 ****  ****    0 ROOT
