@<TRIPOS>MOLECULE
ODD
   51    50     1     0     0
SMALL
No Charge or Current Charge


@<TRIPOS>ATOM
      1 O2          -8.7740     0.9880     0.1760 o          1 ODD      -0.743500
      2 C1          -7.9080     1.6350    -0.3950 c          1 ODD       0.717000
      3 O1          -7.9290     2.8520    -0.4940 o          1 ODD      -0.743500
      4 C2          -6.6960     0.8790    -0.9700 c3         1 ODD      -0.204400
      5 C3          -5.5840     0.7600     0.1010 c3         1 ODD      -0.053400
      6 C4          -4.3310     0.0100    -0.4050 c3         1 ODD      -0.080400
      7 C5          -3.2230    -0.1070     0.6650 c3         1 ODD      -0.074400
      8 C6          -1.9710    -0.8570     0.1590 c3         1 ODD      -0.075400
      9 C7          -0.8630    -0.9750     1.2290 c3         1 ODD      -0.075400
     10 C8           0.3890    -1.7240     0.7230 c3         1 ODD      -0.072400
     11 C9           1.4980    -1.8420     1.7890 c3         1 ODD      -0.047200
     12 C10          2.7140    -2.5830     1.2740 c2         1 ODD      -0.192200
     13 C11          3.6710    -2.0560     0.4830 ce         1 ODD      -0.202000
     14 C12          4.8340    -2.8170     0.0090 ce         1 ODD      -0.172000
     15 C13          5.8100    -2.3250    -0.7870 c2         1 ODD      -0.217200
     16 C14          5.9160    -0.9220    -1.3550 c3         1 ODD      -0.041200
     17 C15          6.4690     0.0900    -0.3280 c3         1 ODD      -0.073400
     18 C16          6.5730     1.5260    -0.8860 c3         1 ODD      -0.076400
     19 C17          7.1240     2.5370     0.1430 c3         1 ODD      -0.074400
     20 C18          7.2270     3.9700    -0.4130 c3         1 ODD      -0.088100
     21 H21         -6.2530     1.4410    -1.8020 hc         1 ODD       0.014700
     22 H22         -6.9740    -0.1500    -1.2300 hc         1 ODD       0.014700
     23 H31         -5.9840     0.2390     0.9800 hc         1 ODD       0.037700
     24 H32         -5.2920     1.7650     0.4310 hc         1 ODD       0.037700
     25 H41         -3.9290     0.5310    -1.2830 hc         1 ODD       0.023700
     26 H42         -4.6210    -0.9950    -0.7340 hc         1 ODD       0.023700
     27 H51         -3.6240    -0.6280     1.5430 hc         1 ODD       0.033700
     28 H52         -2.9320     0.8980     0.9940 hc         1 ODD       0.033700
     29 H61         -1.5690    -0.3360    -0.7190 hc         1 ODD       0.032700
     30 H62         -2.2620    -1.8620    -0.1700 hc         1 ODD       0.032700
     31 H71         -1.2650    -1.4960     2.1070 hc         1 ODD       0.035700
     32 H72         -0.5720     0.0310     1.5580 hc         1 ODD       0.035700
     33 H81          0.7900    -1.2040    -0.1560 hc         1 ODD       0.038200
     34 H82          0.1000    -2.7300     0.3940 hc         1 ODD       0.038200
     35 H91          1.0960    -2.3570     2.6700 hc         1 ODD       0.045700
     36 H92          1.7870    -0.8370     2.1220 hc         1 ODD       0.045700
     37 H10          2.7740    -3.6240     1.5980 ha         1 ODD       0.164000
     38 H11          3.5930    -1.0130     0.1700 ha         1 ODD       0.171000
     39 H12          4.8950    -3.8570     0.3400 ha         1 ODD       0.165000
     40 H13          6.6350    -2.9760    -1.0820 ha         1 ODD       0.162000
     41 H141         4.9370    -0.5810    -1.7150 hc         1 ODD       0.044200
     42 H142         6.5750    -0.9300    -2.2320 hc         1 ODD       0.044200
     43 H151         7.4610    -0.2420     0.0030 hc         1 ODD       0.038700
     44 H152         5.8230     0.0950     0.5590 hc         1 ODD       0.038700
     45 H161         5.5800     1.8560    -1.2180 hc         1 ODD       0.037700
     46 H162         7.2220     1.5230    -1.7710 hc         1 ODD       0.037700
     47 H171         8.1180     2.2120     0.4760 hc         1 ODD       0.036200
     48 H172         6.4760     2.5440     1.0290 hc         1 ODD       0.036200
     49 H181         7.6220     4.6490     0.3520 hc         1 ODD       0.030367
     50 H182         7.8970     4.0030    -1.2800 hc         1 ODD       0.030367
     51 H183         6.2410     4.3380    -0.7230 hc         1 ODD       0.030367
@<TRIPOS>BOND
     1     1     2 1   
     2     2     3 1   
     3     2     4 1   
     4     4     5 1   
     5     4    21 1   
     6     4    22 1   
     7     5     6 1   
     8     5    23 1   
     9     5    24 1   
    10     6     7 1   
    11     6    25 1   
    12     6    26 1   
    13     7     8 1   
    14     7    27 1   
    15     7    28 1   
    16     8     9 1   
    17     8    29 1   
    18     8    30 1   
    19     9    10 1   
    20     9    31 1   
    21     9    32 1   
    22    10    11 1   
    23    10    33 1   
    24    10    34 1   
    25    11    12 1   
    26    11    35 1   
    27    11    36 1   
    28    12    13 2   
    29    12    37 1   
    30    13    14 1   
    31    13    38 1   
    32    14    15 2   
    33    14    39 1   
    34    15    16 1   
    35    15    40 1   
    36    16    17 1   
    37    16    41 1   
    38    16    42 1   
    39    17    18 1   
    40    17    43 1   
    41    17    44 1   
    42    18    19 1   
    43    18    45 1   
    44    18    46 1   
    45    19    20 1   
    46    19    47 1   
    47    19    48 1   
    48    20    49 1   
    49    20    50 1   
    50    20    51 1   
@<TRIPOS>SUBSTRUCTURE
     1 ODD         1 TEMP              0 ****  ****    0 ROOT
