@<TRIPOS>MOLECULE
ODD
   51    50     1     0     0
SMALL
bcc


@<TRIPOS>ATOM
      1 O2          -9.0610     1.1900     0.8400 o          1 ODD      -0.848800
      2 C1          -9.0750     0.3110    -0.0440 c          1 ODD       0.927600
      3 O1         -10.0870    -0.1210    -0.6390 o          1 ODD      -0.848800
      4 C2          -7.7340    -0.3210    -0.4580 c3         1 ODD      -0.204400
      5 C3          -6.4910     0.2130     0.2340 c3         1 ODD      -0.053400
      6 C4          -5.2210    -0.4920    -0.2290 c3         1 ODD      -0.080400
      7 C5          -3.9550     0.0070     0.4570 c3         1 ODD      -0.074400
      8 C6          -2.7040    -0.7350     0.0040 c3         1 ODD      -0.075400
      9 C7          -1.4280    -0.2630     0.6910 c3         1 ODD      -0.075400
     10 C8          -0.2020    -1.0590     0.2650 c3         1 ODD      -0.072400
     11 C9           1.0830    -0.6180     0.9690 c3         1 ODD      -0.047200
     12 C10          2.2380    -1.5020     0.6330 c2         1 ODD      -0.142200
     13 C11          3.3940    -1.1040     0.0910 ce         1 ODD      -0.152000
     14 C12          4.4760    -2.0230    -0.2230 ce         1 ODD      -0.122000
     15 C13          5.6780    -1.7100    -0.7230 c2         1 ODD      -0.167200
     16 C14          6.2060    -0.3500    -1.0470 c3         1 ODD      -0.041200
     17 C15          7.3640     0.0420    -0.1250 c3         1 ODD      -0.073400
     18 C16          7.9730     1.3930    -0.4760 c3         1 ODD      -0.076400
     19 C17          9.1160     1.7920     0.4490 c3         1 ODD      -0.074400
     20 C18          9.7190     3.1430     0.0900 c3         1 ODD      -0.088100
     21 H21         -7.6270    -0.2080    -1.5430 hc         1 ODD       0.014700
     22 H22         -7.8050    -1.4030    -0.2950 hc         1 ODD       0.014700
     23 H31         -6.5910     0.0990     1.3180 hc         1 ODD       0.037700
     24 H32         -6.3950     1.2880     0.0530 hc         1 ODD       0.037700
     25 H41         -5.1150    -0.3740    -1.3140 hc         1 ODD       0.023700
     26 H42         -5.3210    -1.5690    -0.0550 hc         1 ODD       0.023700
     27 H51         -4.0650    -0.0980     1.5420 hc         1 ODD       0.033700
     28 H52         -3.8360     1.0800     0.2670 hc         1 ODD       0.033700
     29 H61         -2.5930    -0.6290    -1.0810 hc         1 ODD       0.032700
     30 H62         -2.8340    -1.8070     0.1900 hc         1 ODD       0.032700
     31 H71         -1.5500    -0.3420     1.7770 hc         1 ODD       0.035700
     32 H72         -1.2710     0.8010     0.4800 hc         1 ODD       0.035700
     33 H81         -0.0660    -0.9780    -0.8180 hc         1 ODD       0.038200
     34 H82         -0.3730    -2.1210     0.4710 hc         1 ODD       0.038200
     35 H91          0.9120    -0.6470     2.0520 hc         1 ODD       0.045700
     36 H92          1.3120     0.4210     0.7170 hc         1 ODD       0.045700
     37 H10          2.1010    -2.5610     0.8450 ha         1 ODD       0.114000
     38 H11          3.5370    -0.0480    -0.1210 ha         1 ODD       0.121000
     39 H12          4.2710    -3.0710    -0.0210 ha         1 ODD       0.115000
     40 H13          6.3760    -2.5260    -0.8900 ha         1 ODD       0.112000
     41 H141         5.4230     0.4090    -0.9910 hc         1 ODD       0.044200
     42 H142         6.5660    -0.3440    -2.0820 hc         1 ODD       0.044200
     43 H151         8.1390    -0.7310    -0.1680 hc         1 ODD       0.038700
     44 H152         7.0070     0.0580     0.9100 hc         1 ODD       0.038700
     45 H161         7.1940     2.1630    -0.4440 hc         1 ODD       0.037700
     46 H162         8.3330     1.3700    -1.5110 hc         1 ODD       0.037700
     47 H171         9.8940     1.0230     0.4160 hc         1 ODD       0.036200
     48 H172         8.7540     1.8130     1.4810 hc         1 ODD       0.036200
     49 H181        10.5370     3.4100     0.7610 hc         1 ODD       0.030367
     50 H182        10.1150     3.1400    -0.9270 hc         1 ODD       0.030367
     51 H183         8.9720     3.9360     0.1500 hc         1 ODD       0.030367
@<TRIPOS>BOND
     1     1     2 1   
     2     2     3 1   
     3     2     4 1   
     4     4     5 1   
     5     4    21 1   
     6     4    22 1   
     7     5     6 1   
     8     5    23 1   
     9     5    24 1   
    10     6     7 1   
    11     6    25 1   
    12     6    26 1   
    13     7     8 1   
    14     7    27 1   
    15     7    28 1   
    16     8     9 1   
    17     8    29 1   
    18     8    30 1   
    19     9    10 1   
    20     9    31 1   
    21     9    32 1   
    22    10    11 1   
    23    10    33 1   
    24    10    34 1   
    25    11    12 1   
    26    11    35 1   
    27    11    36 1   
    28    12    13 2   
    29    12    37 1   
    30    13    14 1   
    31    13    38 1   
    32    14    15 2   
    33    14    39 1   
    34    15    16 1   
    35    15    40 1   
    36    16    17 1   
    37    16    41 1   
    38    16    42 1   
    39    17    18 1   
    40    17    43 1   
    41    17    44 1   
    42    18    19 1   
    43    18    45 1   
    44    18    46 1   
    45    19    20 1   
    46    19    47 1   
    47    19    48 1   
    48    20    49 1   
    49    20    50 1   
    50    20    51 1   
@<TRIPOS>SUBSTRUCTURE
     1 ODD         1 TEMP              0 ****  ****    0 ROOT
