@<TRIPOS>MOLECULE
ODE
   55    58     1     0     0
SMALL
No Charge or Current Charge


@<TRIPOS>ATOM
      1 CAI          2.4010     0.3230    -1.0020 ca         1 ODE      -0.050000
      2 CAN          3.6080     0.6300    -1.6550 ca         1 ODE      -0.179500
      3 CAV          4.5900     1.3840    -0.9970 ca         1 ODE       0.145100
      4 OAZ          5.7560     1.6770    -1.6370 oh         1 ODE      -0.533600
      5 CAO          4.3690     1.8340     0.3140 ca         1 ODE      -0.179500
      6 CAL          3.1630     1.5270     0.9690 ca         1 ODE      -0.050000
      7 CAF          2.1740     0.7660     0.3160 ca         1 ODE      -0.066800
      8 CAA          0.8910     0.4430     1.0030 ce         1 ODE      -0.063900
      9 CAC          0.0960     1.4560     1.8500 c5         1 ODE       0.193500
     10 OBC         -0.4670     0.5830     2.8330 os         1 ODE      -0.425000
     11 CAD         -1.2110     1.8440     1.0760 c5         1 ODE      -0.148700
     12 CAR         -1.0010     2.4650    -0.3310 c          1 ODE       0.613600
     13 OBD         -0.1030     2.2360    -1.1280 o          1 ODE      -0.473000
     14 OBA         -2.0890     3.2430    -0.6320 os         1 ODE      -0.452100
     15 CAJ         -2.1390     3.8690    -1.9250 c3         1 ODE       0.167600
     16 CAU         -3.4520     4.6630    -2.0000 c3         1 ODE      -0.097100
     17 CAK         -2.0120     0.4730     1.1210 c5         1 ODE      -0.148700
     18 CAQ         -2.3610    -0.1780    -0.2450 c          1 ODE       0.613600
     19 OAY         -1.6320    -0.3070    -1.2190 o          1 ODE      -0.473000
     20 OBB         -3.6260    -0.7000    -0.1820 os         1 ODE      -0.452100
     21 CAS         -4.1340    -1.3890    -1.3370 c3         1 ODE       0.167600
     22 CAG         -5.5520    -1.8710    -0.9970 c3         1 ODE      -0.097100
     23 CAE         -1.0160    -0.4010     1.9530 c5         1 ODE       0.193500
     24 CAB          0.2050    -0.7380     1.0740 cf         1 ODE      -0.063900
     25 CAH          0.5080    -2.1110     0.6060 ca         1 ODE      -0.066800
     26 CAM         -0.5320    -3.0430     0.3970 ca         1 ODE      -0.050000
     27 CAW         -0.2450    -4.3480    -0.0400 ca         1 ODE      -0.179500
     28 CAT          1.0810    -4.7410    -0.2610 ca         1 ODE       0.145100
     29 OBE          1.3490    -6.0080    -0.6830 oh         1 ODE      -0.533600
     30 CAX          2.1260    -3.8330    -0.0380 ca         1 ODE      -0.179500
     31 CAP          1.8410    -2.5260     0.3980 ca         1 ODE      -0.050000
     32 HAI          1.6380    -0.2520    -1.5210 ha         1 ODE       0.120000
     33 HAN          3.7770     0.2860    -2.6710 ha         1 ODE       0.120250
     34 HOAZ         6.3180     2.2060    -1.0310 ho         1 ODE       0.465000
     35 HAO          5.1250     2.4180     0.8320 ha         1 ODE       0.120250
     36 HAL          3.0040     1.8730     1.9880 ha         1 ODE       0.120000
     37 HAC          0.6650     2.2860     2.2940 h1         1 ODE       0.108700
     38 HAD         -1.8030     2.5690     1.6450 hc         1 ODE       0.093200
     39 HAJ1        -1.2880     4.5490    -2.0660 h1         1 ODE       0.050450
     40 HAJ2        -2.1210     3.1170    -2.7260 h1         1 ODE       0.050450
     41 HAU1        -3.5390     5.1610    -2.9730 hc         1 ODE       0.046033
     42 HAU2        -4.3140     3.9980    -1.8760 hc         1 ODE       0.046033
     43 HAU3        -3.4840     5.4300    -1.2170 hc         1 ODE       0.046033
     44 HAK         -2.9410     0.5770     1.6930 hc         1 ODE       0.093200
     45 HAS1        -4.1730    -0.7190    -2.2070 h1         1 ODE       0.050450
     46 HAS2        -3.5040    -2.2520    -1.5880 h1         1 ODE       0.050450
     47 HAG1        -5.5330    -2.5530    -0.1380 hc         1 ODE       0.046033
     48 HAG2        -6.2020    -1.0220    -0.7560 hc         1 ODE       0.046033
     49 HAG3        -5.9860    -2.4060    -1.8500 hc         1 ODE       0.046033
     50 HAE         -1.4570    -1.2480     2.4990 h1         1 ODE       0.108700
     51 HAM         -1.5680    -2.7630     0.5630 ha         1 ODE       0.120000
     52 HAW         -1.0540    -5.0540    -0.2050 ha         1 ODE       0.120250
     53 HOBE         2.3200    -6.1040    -0.7810 ho         1 ODE       0.465000
     54 HAX          3.1600    -4.1310    -0.1930 ha         1 ODE       0.120250
     55 HAP          2.6660    -1.8470     0.5930 ha         1 ODE       0.120000
@<TRIPOS>BOND
     1     1     2 ar  
     2     1     7 ar  
     3     1    32 1   
     4     2     3 ar  
     5     2    33 1   
     6     3     4 1   
     7     3     5 ar  
     8     4    34 1   
     9     5     6 ar  
    10     5    35 1   
    11     6     7 ar  
    12     6    36 1   
    13     7     8 1   
    14     8     9 1   
    15     8    24 2   
    16     9    10 1   
    17     9    11 1   
    18     9    37 1   
    19    10    23 1   
    20    11    12 1   
    21    11    17 1   
    22    11    38 1   
    23    12    13 2   
    24    12    14 1   
    25    14    15 1   
    26    15    16 1   
    27    15    39 1   
    28    15    40 1   
    29    16    41 1   
    30    16    42 1   
    31    16    43 1   
    32    17    18 1   
    33    17    23 1   
    34    17    44 1   
    35    18    19 2   
    36    18    20 1   
    37    20    21 1   
    38    21    22 1   
    39    21    45 1   
    40    21    46 1   
    41    22    47 1   
    42    22    48 1   
    43    22    49 1   
    44    23    24 1   
    45    23    50 1   
    46    24    25 1   
    47    25    26 ar  
    48    25    31 ar  
    49    26    27 ar  
    50    26    51 1   
    51    27    28 ar  
    52    27    52 1   
    53    28    29 1   
    54    28    30 ar  
    55    29    53 1   
    56    30    31 ar  
    57    30    54 1   
    58    31    55 1   
@<TRIPOS>SUBSTRUCTURE
     1 ODE         1 TEMP              0 ****  ****    0 ROOT
