@<TRIPOS>MOLECULE
ODE
   55    58     1     0     0
SMALL
bcc


@<TRIPOS>ATOM
      1 CAI          2.1940     0.4460    -0.9820 ca         1 ODE      -0.068000
      2 CAN          3.3060     0.7620    -1.7370 ca         1 ODE      -0.197500
      3 CAV          4.3860     1.4190    -1.1470 ca         1 ODE       0.145100
      4 OAZ          5.4490     1.7040    -1.9240 oh         1 ODE      -0.494600
      5 CAO          4.3260     1.7570     0.2020 ca         1 ODE      -0.197500
      6 CAL          3.2020     1.4330     0.9460 ca         1 ODE      -0.068000
      7 CAF          2.1230     0.7620     0.3760 ca         1 ODE      -0.066800
      8 CAA          0.9430     0.4250     1.1690 ce         1 ODE      -0.063900
      9 CAC          0.2130     1.4110     2.0630 c5         1 ODE       0.170300
     10 OBC         -0.3870     0.5600     3.0280 os         1 ODE      -0.378600
     11 CAD         -1.0660     1.9160     1.3430 c5         1 ODE      -0.148700
     12 CAR         -0.8480     2.6680     0.0610 c          1 ODE       0.662600
     13 OBD          0.2230     3.0510    -0.3330 o          1 ODE      -0.522000
     14 OBA         -2.0020     2.9370    -0.5320 os         1 ODE      -0.428900
     15 CAJ         -1.9710     3.5770    -1.8150 c3         1 ODE       0.144400
     16 CAU         -3.3680     3.5340    -2.3850 c3         1 ODE      -0.097100
     17 CAK         -1.9190     0.6260     1.3030 c5         1 ODE      -0.148700
     18 CAQ         -2.2440     0.1000    -0.0710 c          1 ODE       0.662600
     19 OAY         -1.5100     0.1660    -1.0240 o          1 ODE      -0.522000
     20 OBB         -3.4280    -0.4940    -0.0910 os         1 ODE      -0.428900
     21 CAS         -3.8690    -1.0760    -1.3290 c3         1 ODE       0.144400
     22 CAG         -5.2370    -1.6680    -1.0970 c3         1 ODE      -0.097100
     23 CAE         -0.9680    -0.3390     2.1070 c5         1 ODE       0.170300
     24 CAB          0.2130    -0.7030     1.2280 cf         1 ODE      -0.063900
     25 CAH          0.4010    -2.0240     0.6430 ca         1 ODE      -0.066800
     26 CAM         -0.6850    -2.8850     0.4570 ca         1 ODE      -0.068000
     27 CAW         -0.5290    -4.1560    -0.0700 ca         1 ODE      -0.197500
     28 CAT          0.7390    -4.6150    -0.4130 ca         1 ODE       0.145100
     29 OBE          0.8460    -5.8580    -0.9190 oh         1 ODE      -0.494600
     30 CAX          1.8390    -3.7830    -0.2120 ca         1 ODE      -0.197500
     31 CAP          1.6670    -2.5130     0.3070 ca         1 ODE      -0.068000
     32 HAI          1.3520    -0.0410    -1.4560 ha         1 ODE       0.138000
     33 HAN          3.3400     0.5140    -2.7910 ha         1 ODE       0.138250
     34 HOAZ         6.1200     2.1770    -1.4180 ho         1 ODE       0.426000
     35 HAO          5.1550     2.2710     0.6750 ha         1 ODE       0.138250
     36 HAL          3.1770     1.7030     1.9950 ha         1 ODE       0.138000
     37 HAC          0.8120     2.1940     2.5260 h1         1 ODE       0.108700
     38 HAD         -1.5680     2.6200     2.0160 hc         1 ODE       0.093200
     39 HAJ1        -1.6240     4.6070    -1.7030 h1         1 ODE       0.050450
     40 HAJ2        -1.2690     3.0550    -2.4680 h1         1 ODE       0.050450
     41 HAU1        -3.3700     4.0170    -3.3610 hc         1 ODE       0.046033
     42 HAU2        -3.7100     2.5070    -2.5180 hc         1 ODE       0.046033
     43 HAU3        -4.0810     4.0590    -1.7500 hc         1 ODE       0.046033
     44 HAK         -2.8410     0.7550     1.8680 hc         1 ODE       0.093200
     45 HAS1        -3.9010    -0.3060    -2.1030 h1         1 ODE       0.050450
     46 HAS2        -3.1590    -1.8420    -1.6490 h1         1 ODE       0.050450
     47 HAG1        -5.2120    -2.4580    -0.3470 hc         1 ODE       0.046033
     48 HAG2        -5.9530    -0.9080    -0.7820 hc         1 ODE       0.046033
     49 HAG3        -5.6000    -2.1030    -2.0280 hc         1 ODE       0.046033
     50 HAE         -1.4880    -1.1540     2.6090 h1         1 ODE       0.108700
     51 HAM         -1.6850    -2.5720     0.7280 ha         1 ODE       0.138000
     52 HAW         -1.3930    -4.7950    -0.2080 ha         1 ODE       0.138250
     53 HOBE         1.7700    -6.0760    -1.0870 ho         1 ODE       0.426000
     54 HAX          2.8370    -4.1300    -0.4540 ha         1 ODE       0.138250
     55 HAP          2.5430    -1.8970     0.4650 ha         1 ODE       0.138000
@<TRIPOS>BOND
     1     1     2 ar  
     2     1     7 ar  
     3     1    32 1   
     4     2     3 ar  
     5     2    33 1   
     6     3     4 1   
     7     3     5 ar  
     8     4    34 1   
     9     5     6 ar  
    10     5    35 1   
    11     6     7 ar  
    12     6    36 1   
    13     7     8 1   
    14     8     9 1   
    15     8    24 2   
    16     9    10 1   
    17     9    11 1   
    18     9    37 1   
    19    10    23 1   
    20    11    12 1   
    21    11    17 1   
    22    11    38 1   
    23    12    13 2   
    24    12    14 1   
    25    14    15 1   
    26    15    16 1   
    27    15    39 1   
    28    15    40 1   
    29    16    41 1   
    30    16    42 1   
    31    16    43 1   
    32    17    18 1   
    33    17    23 1   
    34    17    44 1   
    35    18    19 2   
    36    18    20 1   
    37    20    21 1   
    38    21    22 1   
    39    21    45 1   
    40    21    46 1   
    41    22    47 1   
    42    22    48 1   
    43    22    49 1   
    44    23    24 1   
    45    23    50 1   
    46    24    25 1   
    47    25    26 ar  
    48    25    31 ar  
    49    26    27 ar  
    50    26    51 1   
    51    27    28 ar  
    52    27    52 1   
    53    28    29 1   
    54    28    30 ar  
    55    29    53 1   
    56    30    31 ar  
    57    30    54 1   
    58    31    55 1   
@<TRIPOS>SUBSTRUCTURE
     1 ODE         1 TEMP              0 ****  ****    0 ROOT
