@<TRIPOS>MOLECULE
ODF
   13    13     1     0     0
SMALL
No Charge or Current Charge


@<TRIPOS>ATOM
      1 O3          28.2540   -11.4990    43.2300 o          1 ODF      -0.549000
      2 C4          27.4280   -10.8510    42.6180 c          1 ODF       0.615000
      3 N1          27.7230    -9.6810    41.9910 ns         1 ODF      -0.458500
      4 C2          26.8840    -8.8720    41.2780 c          1 ODF       0.556200
      5 O2          27.2700    -7.8360    40.7570 o          1 ODF      -0.538000
      6 N2          26.1210   -11.2430    42.5050 ns         1 ODF      -0.511600
      7 C3          25.1210   -10.5530    41.8210 cc         1 ODF      -0.069400
      8 C1          25.4730    -9.3750    41.2040 cd         1 ODF      -0.056100
      9 O1          24.5930    -8.6050    40.5040 oh         1 ODF      -0.518100
     10 H1          28.6800    -9.3740    42.0620 hn         1 ODF       0.348500
     11 H2          24.1350   -11.0120    41.8340 h4         1 ODF       0.223000
     12 H4          25.0910    -7.8230    40.1660 ho         1 ODF       0.491000
     13 H5          25.9110   -12.1200    42.9770 hn         1 ODF       0.467000
@<TRIPOS>BOND
     1     1     2 2   
     2     2     3 1   
     3     2     6 1   
     4     3     4 1   
     5     3    10 1   
     6     4     5 2   
     7     4     8 1   
     8     6     7 1   
     9     6    13 1   
    10     7     8 2   
    11     7    11 1   
    12     8     9 1   
    13     9    12 1   
@<TRIPOS>SUBSTRUCTURE
     1 ODF         1 TEMP              0 ****  ****    0 ROOT
