@<TRIPOS>MOLECULE
ODF
   13    13     1     0     0
SMALL
abcg2


@<TRIPOS>ATOM
      1 O3          28.2640   -11.5120    43.2390 o          1 ODF      -0.549000
      2 C4          27.4300   -10.8730    42.6300 c          1 ODF       0.615000
      3 N1          27.7250    -9.6860    41.9910 ns         1 ODF      -0.458500
      4 C2          26.8670    -8.8820    41.2800 c          1 ODF       0.556200
      5 O2          27.2270    -7.8410    40.7580 o          1 ODF      -0.538000
      6 N2          26.1270   -11.2430    42.5070 ns         1 ODF      -0.511600
      7 C3          25.1830   -10.5210    41.8190 cc         1 ODF      -0.069400
      8 C1          25.4990    -9.3710    41.2060 cd         1 ODF      -0.056100
      9 O1          24.5990    -8.6430    40.5200 oh         1 ODF      -0.518100
     10 H1          28.6870    -9.3750    42.0620 hn         1 ODF       0.348500
     11 H2          24.1870   -10.9390    41.8060 h4         1 ODF       0.223000
     12 H4          25.0400    -7.8550    40.1740 ho         1 ODF       0.491000
     13 H5          25.8500   -12.1040    42.9550 hn         1 ODF       0.467000
@<TRIPOS>BOND
     1     1     2 2   
     2     2     3 1   
     3     2     6 1   
     4     3     4 1   
     5     3    10 1   
     6     4     5 2   
     7     4     8 1   
     8     6     7 1   
     9     6    13 1   
    10     7     8 2   
    11     7    11 1   
    12     8     9 1   
    13     9    12 1   
@<TRIPOS>SUBSTRUCTURE
     1 ODF         1 TEMP              0 ****  ****    0 ROOT
