@<TRIPOS>MOLECULE
ODG
   47    50     1     0     0
SMALL
No Charge or Current Charge


@<TRIPOS>ATOM
      1 C17        -36.0130    -9.3200   -17.4470 ca         1 ODG       0.295000
      2 C20        -34.6500    -9.6620   -17.3540 ca         1 ODG      -0.038000
      3 C21        -34.0080    -9.5180   -16.1060 ca         1 ODG      -0.198000
      4 C22        -32.6330   -14.9120    -7.5230 cx         1 ODG      -0.088400
      5 C24        -32.7280   -16.0280    -8.5410 cx         1 ODG      -0.122400
      6 C26        -31.5230   -13.1450    -8.9930 ca         1 ODG      -0.106500
      7 C01        -34.4980    -7.9170   -11.3990 c6         1 ODG       0.082000
      8 C02        -34.5490    -7.6400   -12.9230 c6         1 ODG       0.201300
      9 C04        -32.3780   -13.4770    -7.9210 ca         1 ODG      -0.034300
     10 C05        -33.0040   -12.4370    -7.2070 ca         1 ODG      -0.106500
     11 C06        -32.7850   -11.0930    -7.5570 ca         1 ODG      -0.089500
     12 C07        -31.9380   -10.7650    -8.6320 ca         1 ODG      -0.076300
     13 C08        -31.7080    -9.3040    -9.0130 c3         1 ODG      -0.105100
     14 C11        -32.8090    -9.7210   -11.8110 c6         1 ODG       0.082000
     15 C12        -32.9080    -9.4370   -13.3360 c6         1 ODG       0.201300
     16 C14        -34.7620    -9.0380   -15.0140 ca         1 ODG       0.590900
     17 C18        -36.7320    -9.4410   -18.6890 cg         1 ODG       0.232000
     18 C23        -31.5570   -15.9730    -7.5900 cx         1 ODG      -0.122400
     19 C25        -31.3040   -11.8020    -9.3440 ca         1 ODG      -0.089500
     20 N10        -33.2590    -8.6050   -10.9170 n          1 ODG      -0.423800
     21 N13        -34.2240    -8.8580   -13.7170 nh         1 ODG      -0.775300
     22 N15        -36.0730    -8.7230   -15.1700 nb         1 ODG      -0.411000
     23 N16        -36.6920    -8.8600   -16.3650 nb         1 ODG      -0.227000
     24 N19        -37.3060    -9.5430   -19.7030 n1         1 ODG      -0.437000
     25 O24        -33.7910    -8.1410    -8.7320 o          1 ODG      -0.578100
     26 H1         -34.1070   -10.0250   -18.2240 ha         1 ODG       0.139000
     27 H2         -32.9560    -9.7600   -16.0050 ha         1 ODG       0.131000
     28 H3         -33.3150   -14.9860    -6.6780 hc         1 ODG       0.080700
     29 H4         -33.4780   -16.7980    -8.3760 hc         1 ODG       0.073200
     30 H5         -32.5470   -15.7910    -9.5860 hc         1 ODG       0.073200
     31 H6         -31.0220   -13.9240    -9.5620 ha         1 ODG       0.112000
     32 H7         -34.6150    -6.9580   -10.8720 h1         1 ODG       0.065700
     33 H8         -35.3650    -8.5380   -11.1310 h1         1 ODG       0.065700
     34 H9         -33.8300    -6.8420   -13.1600 h1         1 ODG       0.066700
     35 H10        -35.5480    -7.2500   -13.1640 h1         1 ODG       0.066700
     36 H11        -33.6640   -12.6660    -6.3740 ha         1 ODG       0.112000
     37 H12        -33.2770   -10.3070    -6.9900 ha         1 ODG       0.108000
     38 H13        -30.9330    -9.2470    -9.7840 hc         1 ODG       0.061700
     39 H14        -31.3670    -8.7570    -8.1260 hc         1 ODG       0.061700
     40 H15        -33.4200   -10.6060   -11.5840 h1         1 ODG       0.065700
     41 H16        -31.7670    -9.9920   -11.6000 h1         1 ODG       0.065700
     42 H17        -32.7290   -10.3870   -13.8610 h1         1 ODG       0.066700
     43 H18        -32.1000    -8.7470   -13.6220 h1         1 ODG       0.066700
     44 H19        -30.5850   -15.6990    -7.9950 hc         1 ODG       0.073200
     45 H20        -31.5210   -16.7060    -6.7880 hc         1 ODG       0.073200
     46 H21        -30.6360   -11.5720   -10.1710 ha         1 ODG       0.108000
     47 C09        -33.0050    -8.6490    -9.5240 c          1 ODG       0.607100
@<TRIPOS>BOND
     1     1     2 ar  
     2     1    17 1   
     3     1    23 ar  
     4     2     3 ar  
     5     2    26 1   
     6     3    16 ar  
     7     3    27 1   
     8     4     5 1   
     9     4     9 1   
    10     4    18 1   
    11     4    28 1   
    12     5    18 1   
    13     5    29 1   
    14     5    30 1   
    15     6     9 ar  
    16     6    19 ar  
    17     6    31 1   
    18     7     8 1   
    19     7    20 1   
    20     7    32 1   
    21     7    33 1   
    22     8    21 1   
    23     8    34 1   
    24     8    35 1   
    25     9    10 ar  
    26    10    11 ar  
    27    10    36 1   
    28    11    12 ar  
    29    11    37 1   
    30    12    13 1   
    31    12    19 ar  
    32    13    38 1   
    33    13    39 1   
    34    13    47 1   
    35    14    15 1   
    36    14    20 1   
    37    14    40 1   
    38    14    41 1   
    39    15    21 1   
    40    15    42 1   
    41    15    43 1   
    42    16    21 1   
    43    16    22 ar  
    44    17    24 3   
    45    18    44 1   
    46    18    45 1   
    47    19    46 1   
    48    20    47 1   
    49    22    23 ar  
    50    25    47 2   
@<TRIPOS>SUBSTRUCTURE
     1 ODG         1 TEMP              0 ****  ****    0 ROOT
