@<TRIPOS>MOLECULE
ODG
   47    50     1     0     0
SMALL
bcc


@<TRIPOS>ATOM
      1 C17        -35.4800    -6.7260   -17.5780 ca         1 ODG       0.360300
      2 C20        -34.1010    -6.8460   -17.3670 ca         1 ODG      -0.121300
      3 C21        -33.6890    -7.4830   -16.2370 ca         1 ODG      -0.281300
      4 C22        -31.8480   -13.8240    -5.4550 cx         1 ODG      -0.088400
      5 C24        -32.5520   -15.1080    -5.1050 cx         1 ODG      -0.122400
      6 C26        -31.9720   -14.0320    -7.9670 ca         1 ODG      -0.124500
      7 C01        -35.2430   -10.5170   -12.8930 c6         1 ODG       0.082000
      8 C02        -35.4300    -9.0590   -13.2810 c6         1 ODG       0.201300
      9 C04        -31.9460   -13.2430    -6.8160 ca         1 ODG      -0.034300
     10 C05        -32.0110   -11.8610    -6.9770 ca         1 ODG      -0.124500
     11 C06        -32.1000   -11.2870    -8.2370 ca         1 ODG      -0.107500
     12 C07        -32.1280   -12.0750    -9.3810 ca         1 ODG      -0.076300
     13 C08        -32.2330   -11.4590   -10.7430 c3         1 ODG      -0.105100
     14 C11        -32.8800   -10.3430   -13.3410 c6         1 ODG       0.082000
     15 C12        -33.0560    -8.8820   -13.7330 c6         1 ODG       0.201300
     16 C14        -34.6830    -7.9840   -15.3600 ca         1 ODG       0.656200
     17 C18        -36.0060    -6.0750   -18.7350 cg         1 ODG       0.142800
     18 C23        -31.0650   -15.0840    -5.1990 cx         1 ODG      -0.122400
     19 C25        -32.0620   -13.4560    -9.2250 ca         1 ODG      -0.107500
     20 N10        -33.9000   -10.7460   -12.3970 n          1 ODG      -0.490800
     21 N13        -34.4000    -8.6450   -14.2220 nh         1 ODG      -0.775300
     22 N15        -35.9890    -7.8090   -15.6440 nb         1 ODG      -0.411000
     23 N16        -36.3700    -7.2010   -16.7220 nb         1 ODG      -0.227000
     24 N19        -36.4140    -5.5480   -19.6740 n1         1 ODG      -0.347800
     25 O24        -34.6020   -11.5800   -10.4250 o          1 ODG      -0.578100
     26 H1         -33.3910    -6.4420   -18.0750 ha         1 ODG       0.157000
     27 H2         -32.6330    -7.5850   -16.0390 ha         1 ODG       0.149000
     28 H3         -31.8120   -13.0820    -4.6650 hc         1 ODG       0.080700
     29 H4         -33.0060   -15.1800    -4.1250 hc         1 ODG       0.073200
     30 H5         -33.1090   -15.6050    -5.8900 hc         1 ODG       0.073200
     31 H6         -31.9190   -15.1120    -7.8900 ha         1 ODG       0.130000
     32 H7         -35.9670   -10.7810   -12.1270 h1         1 ODG       0.065700
     33 H8         -35.4230   -11.1570   -13.7630 h1         1 ODG       0.065700
     34 H9         -35.3690    -8.4280   -12.3880 h1         1 ODG       0.066700
     35 H10        -36.4110    -8.9230   -13.7220 h1         1 ODG       0.066700
     36 H11        -31.9880   -11.2200    -6.1030 ha         1 ODG       0.130000
     37 H12        -32.1440   -10.2080    -8.3270 ha         1 ODG       0.126000
     38 H13        -31.7180   -12.0840   -11.4780 hc         1 ODG       0.061700
     39 H14        -31.7200   -10.4940   -10.7560 hc         1 ODG       0.061700
     40 H15        -32.9470   -10.9690   -14.2360 h1         1 ODG       0.065700
     41 H16        -31.8830   -10.4710   -12.9310 h1         1 ODG       0.065700
     42 H17        -32.3100    -8.6460   -14.4850 h1         1 ODG       0.066700
     43 H18        -32.8630    -8.2400   -12.8660 h1         1 ODG       0.066700
     44 H19        -30.5970   -15.5630    -6.0510 hc         1 ODG       0.073200
     45 H20        -30.4880   -15.1390    -4.2850 hc         1 ODG       0.073200
     46 H21        -32.0750   -14.0960   -10.1000 ha         1 ODG       0.126000
     47 C09        -33.6840   -11.2680   -11.1680 c          1 ODG       0.674100
@<TRIPOS>BOND
     1     1     2 ar  
     2     1    17 1   
     3     1    23 ar  
     4     2     3 ar  
     5     2    26 1   
     6     3    16 ar  
     7     3    27 1   
     8     4     5 1   
     9     4     9 1   
    10     4    18 1   
    11     4    28 1   
    12     5    18 1   
    13     5    29 1   
    14     5    30 1   
    15     6     9 ar  
    16     6    19 ar  
    17     6    31 1   
    18     7     8 1   
    19     7    20 1   
    20     7    32 1   
    21     7    33 1   
    22     8    21 1   
    23     8    34 1   
    24     8    35 1   
    25     9    10 ar  
    26    10    11 ar  
    27    10    36 1   
    28    11    12 ar  
    29    11    37 1   
    30    12    13 1   
    31    12    19 ar  
    32    13    38 1   
    33    13    39 1   
    34    13    47 1   
    35    14    15 1   
    36    14    20 1   
    37    14    40 1   
    38    14    41 1   
    39    15    21 1   
    40    15    42 1   
    41    15    43 1   
    42    16    21 1   
    43    16    22 ar  
    44    17    24 3   
    45    18    44 1   
    46    18    45 1   
    47    19    46 1   
    48    20    47 1   
    49    22    23 ar  
    50    25    47 2   
@<TRIPOS>SUBSTRUCTURE
     1 ODG         1 TEMP              0 ****  ****    0 ROOT
