@<TRIPOS>MOLECULE
ODH
   30    32     1     0     0
SMALL
bcc


@<TRIPOS>ATOM
      1 C            0.6890     0.9790     0.0500 c          1 ODH       0.685700
      2 N           -4.0760     0.9380     0.9180 nb         1 ODH      -0.613000
      3 O            3.8190     0.0770     0.9800 os         1 ODH      -0.308800
      4 C1          -0.6300     0.2750    -0.0430 ca         1 ODH      -0.146600
      5 N1          -4.3300    -1.6060    -0.2410 nb         1 ODH      -0.626000
      6 O1           0.9080     1.7860     0.9410 o          1 ODH      -0.584100
      7 C2          -1.7310     0.9030     0.4800 ca         1 ODH      -0.096300
      8 N2           1.5770     0.6830    -0.9130 ns         1 ODH      -0.571900
      9 C3          -2.9970     0.2900     0.4160 ca         1 ODH       0.275300
     10 C4          -5.2210     0.3260     0.8330 ca         1 ODH       0.295900
     11 C5          -5.3490    -0.9600     0.2470 ca         1 ODH       0.305900
     12 C6          -3.1250    -0.9910    -0.1690 ca         1 ODH       0.299300
     13 C7          -1.9780    -1.6330    -0.6800 ca         1 ODH      -0.163300
     14 C8          -0.7620    -1.0110    -0.6210 ca         1 ODH      -0.105000
     15 C9           2.9140     1.2380    -0.9550 c3         1 ODH       0.077700
     16 C10          3.9310     0.3430    -0.3400 cc         1 ODH       0.202000
     17 C11          4.8290    -0.7540     1.3170 cc         1 ODH       0.239600
     18 C12          5.5940    -1.0250     0.2360 cd         1 ODH      -0.275300
     19 C13          5.0030    -0.3090    -0.8510 cd         1 ODH      -0.258300
     20 H2          -1.6540     1.8800     0.9400 ha         1 ODH       0.174000
     21 HN2          1.3250     0.0510    -1.6540 hn         1 ODH       0.318500
     22 H4          -6.0980     0.8270     1.2260 h4         1 ODH       0.032100
     23 H5          -6.3220    -1.4330     0.1970 h4         1 ODH       0.031100
     24 H7          -2.0800    -2.6200    -1.1110 ha         1 ODH       0.155000
     25 H8           0.1060    -1.5340    -1.0000 ha         1 ODH       0.137000
     26 H9           3.1890     1.4030    -1.9960 h1         1 ODH       0.074700
     27 H9A          2.9030     2.2130    -0.4670 h1         1 ODH       0.074700
     28 H11          4.8760    -1.0630     2.3490 h4         1 ODH       0.054100
     29 H12          6.4670    -1.6560     0.2090 ha         1 ODH       0.160000
     30 H13          5.3320    -0.2840    -1.8780 ha         1 ODH       0.156000
@<TRIPOS>BOND
     1     1     4 1   
     2     1     6 2   
     3     1     8 1   
     4     2     9 ar  
     5     2    10 ar  
     6     3    16 1   
     7     3    17 1   
     8     4     7 ar  
     9     4    14 ar  
    10     5    11 ar  
    11     5    12 ar  
    12     7     9 ar  
    13     7    20 1   
    14     8    15 1   
    15     8    21 1   
    16     9    12 ar  
    17    10    11 ar  
    18    10    22 1   
    19    11    23 1   
    20    12    13 ar  
    21    13    14 ar  
    22    13    24 1   
    23    14    25 1   
    24    15    16 1   
    25    15    26 1   
    26    15    27 1   
    27    16    19 2   
    28    17    18 2   
    29    17    28 1   
    30    18    19 1   
    31    18    29 1   
    32    19    30 1   
@<TRIPOS>SUBSTRUCTURE
     1 ODH         1 TEMP              0 ****  ****    0 ROOT
