@<TRIPOS>MOLECULE
ODH
   30    32     1     0     0
SMALL
No Charge or Current Charge


@<TRIPOS>ATOM
      1 C            0.4650     1.3140    -0.0110 c          1 ODH       0.618700
      2 N           -4.4410     1.0170     0.0210 nb         1 ODH      -0.613000
      3 O            4.5620    -0.2750     1.0690 os         1 ODH      -0.220000
      4 C1          -0.7860     0.4610     0.0070 ca         1 ODH      -0.146600
      5 N1          -4.3130    -1.8410     0.0550 nb         1 ODH      -0.626000
      6 O1           0.4200     2.5370    -0.0270 o          1 ODH      -0.584100
      7 C2          -2.0500     1.0930     0.0060 ca         1 ODH      -0.013000
      8 N2           1.6710     0.6500    -0.0090 ns         1 ODH      -0.504900
      9 C3          -3.2500     0.3570     0.0220 ca         1 ODH       0.210000
     10 C4          -5.5600     0.2440     0.0370 ca         1 ODH       0.295900
     11 C5          -5.4960    -1.1700     0.0540 ca         1 ODH       0.305900
     12 C6          -3.1870    -1.0760     0.0390 ca         1 ODH       0.234000
     13 C7          -1.9280    -1.7020     0.0390 ca         1 ODH      -0.080000
     14 C8          -0.7410    -0.9520     0.0230 ca         1 ODH      -0.087000
     15 C9           2.9820     1.3090    -0.0210 c3         1 ODH       0.077700
     16 C10          4.1220     0.3300    -0.0880 cc         1 ODH       0.092300
     17 C11          5.5920    -1.1170     0.7120 cc         1 ODH       0.129900
     18 C12          5.7920    -1.0430    -0.6400 cd         1 ODH      -0.192000
     19 C13          4.8550    -0.1220    -1.1510 cd         1 ODH      -0.175000
     20 H2          -2.1140     2.1780    -0.0060 ha         1 ODH       0.156000
     21 HN2          1.6410    -0.3610     0.0080 hn         1 ODH       0.318500
     22 H4          -6.5180     0.7610     0.0370 h4         1 ODH       0.032100
     23 H5          -6.4050    -1.7710     0.0670 h4         1 ODH       0.031100
     24 H7          -1.8740    -2.7870     0.0520 ha         1 ODH       0.137000
     25 H8           0.2040    -1.4890     0.0240 ha         1 ODH       0.119000
     26 H9           3.0360     1.9820    -0.8870 h1         1 ODH       0.074700
     27 H9A          3.0830     1.9180     0.8870 h1         1 ODH       0.074700
     28 H11          6.0770    -1.6900     1.4910 h4         1 ODH       0.054100
     29 H12          6.5360    -1.5960    -1.2050 ha         1 ODH       0.142000
     30 H13          4.7310     0.1750    -2.1870 ha         1 ODH       0.138000
@<TRIPOS>BOND
     1     1     4 1   
     2     1     6 2   
     3     1     8 1   
     4     2     9 ar  
     5     2    10 ar  
     6     3    16 1   
     7     3    17 1   
     8     4     7 ar  
     9     4    14 ar  
    10     5    11 ar  
    11     5    12 ar  
    12     7     9 ar  
    13     7    20 1   
    14     8    15 1   
    15     8    21 1   
    16     9    12 ar  
    17    10    11 ar  
    18    10    22 1   
    19    11    23 1   
    20    12    13 ar  
    21    13    14 ar  
    22    13    24 1   
    23    14    25 1   
    24    15    16 1   
    25    15    26 1   
    26    15    27 1   
    27    16    19 2   
    28    17    18 2   
    29    17    28 1   
    30    18    19 1   
    31    18    29 1   
    32    19    30 1   
@<TRIPOS>SUBSTRUCTURE
     1 ODH         1 TEMP              0 ****  ****    0 ROOT
