@<TRIPOS>MOLECULE
ODI
   28    27     1     0     0
SMALL
No Charge or Current Charge


@<TRIPOS>ATOM
      1 OAA          5.6710    -0.3030    -0.0150 oh         1 ODI      -0.662000
      2 CAC          4.5030     0.5240    -0.0150 c3         1 ODI       0.163600
      3 CAE          3.2400    -0.3590    -0.0130 c3         1 ODI      -0.081400
      4 CAG          1.9310     0.4610    -0.0120 c3         1 ODI      -0.075400
      5 CAI          0.6630    -0.4210    -0.0100 c3         1 ODI      -0.074400
      6 CAJ         -0.6450     0.4000    -0.0100 c3         1 ODI      -0.074400
      7 CAH         -1.9130    -0.4820    -0.0080 c3         1 ODI      -0.075400
      8 CAF         -3.2220     0.3390    -0.0070 c3         1 ODI      -0.081400
      9 CAD         -4.4850    -0.5450    -0.0050 c3         1 ODI       0.163600
     10 OAB         -5.6530     0.2820    -0.0050 oh         1 ODI      -0.662000
     11 HAA          6.4470     0.3010    -0.0170 ho         1 ODI       0.442000
     12 HAC1         4.4960     1.1710     0.8720 h1         1 ODI       0.015450
     13 HAC2         4.4940     1.1680    -0.9040 h1         1 ODI       0.015450
     14 HAE1         3.2560    -1.0120    -0.8940 hc         1 ODI       0.052200
     15 HAE2         3.2580    -1.0100     0.8710 hc         1 ODI       0.052200
     16 HAG1         1.9160     1.1150     0.8690 hc         1 ODI       0.037450
     17 HAG2         1.9140     1.1130    -0.8950 hc         1 ODI       0.037450
     18 HAI1         0.6770    -1.0750    -0.8910 hc         1 ODI       0.038950
     19 HAI2         0.6790    -1.0730     0.8730 hc         1 ODI       0.038950
     20 HAJ1        -0.6600     1.0540     0.8720 hc         1 ODI       0.038950
     21 HAJ2        -0.6610     1.0520    -0.8920 hc         1 ODI       0.038950
     22 HAH1        -1.8980    -1.1360    -0.8890 hc         1 ODI       0.037450
     23 HAH2        -1.8970    -1.1340     0.8750 hc         1 ODI       0.037450
     24 HAF1        -3.2390     0.9910     0.8740 hc         1 ODI       0.052200
     25 HAF2        -3.2400     0.9890    -0.8900 hc         1 ODI       0.052200
     26 HAD1        -4.4780    -1.1910    -0.8930 h1         1 ODI       0.015450
     27 HAD2        -4.4760    -1.1900     0.8840 h1         1 ODI       0.015450
     28 HAB         -6.4300    -0.3220    -0.0040 ho         1 ODI       0.442000
@<TRIPOS>BOND
     1     1     2 1   
     2     1    11 1   
     3     2     3 1   
     4     2    12 1   
     5     2    13 1   
     6     3     4 1   
     7     3    14 1   
     8     3    15 1   
     9     4     5 1   
    10     4    16 1   
    11     4    17 1   
    12     5     6 1   
    13     5    18 1   
    14     5    19 1   
    15     6     7 1   
    16     6    20 1   
    17     6    21 1   
    18     7     8 1   
    19     7    22 1   
    20     7    23 1   
    21     8     9 1   
    22     8    24 1   
    23     8    25 1   
    24     9    10 1   
    25     9    26 1   
    26     9    27 1   
    27    10    28 1   
@<TRIPOS>SUBSTRUCTURE
     1 ODI         1 TEMP              0 ****  ****    0 ROOT
