@<TRIPOS>MOLECULE
ODI
   28    27     1     0     0
SMALL
bcc


@<TRIPOS>ATOM
      1 OAA          5.5820    -0.2930    -0.0150 oh         1 ODI      -0.599800
      2 CAC          4.4250     0.5170    -0.0140 c3         1 ODI       0.140400
      3 CAE          3.1940    -0.3680    -0.0130 c3         1 ODI      -0.081400
      4 CAG          1.9070     0.4470    -0.0120 c3         1 ODI      -0.075400
      5 CAI          0.6520    -0.4180    -0.0090 c3         1 ODI      -0.074400
      6 CAJ         -0.6350     0.3970    -0.0090 c3         1 ODI      -0.074400
      7 CAH         -1.8890    -0.4680    -0.0060 c3         1 ODI      -0.075400
      8 CAF         -3.1760     0.3470    -0.0070 c3         1 ODI      -0.081400
      9 CAD         -4.4070    -0.5380    -0.0060 c3         1 ODI       0.140400
     10 OAB         -5.5640     0.2730    -0.0070 oh         1 ODI      -0.599800
     11 HAA          6.3510     0.2830    -0.0230 ho         1 ODI       0.403000
     12 HAC1         4.3970     1.1730     0.8670 h1         1 ODI       0.015450
     13 HAC2         4.3960     1.1730    -0.8950 h1         1 ODI       0.015450
     14 HAE1         3.2140    -1.0200    -0.8920 hc         1 ODI       0.052200
     15 HAE2         3.2150    -1.0210     0.8660 hc         1 ODI       0.052200
     16 HAG1         1.8920     1.1070     0.8620 hc         1 ODI       0.037450
     17 HAG2         1.8890     1.1040    -0.8880 hc         1 ODI       0.037450
     18 HAI1         0.6650    -1.0780    -0.8840 hc         1 ODI       0.038950
     19 HAI2         0.6670    -1.0760     0.8660 hc         1 ODI       0.038950
     20 HAJ1        -0.6470     1.0570     0.8660 hc         1 ODI       0.038950
     21 HAJ2        -0.6490     1.0550    -0.8850 hc         1 ODI       0.038950
     22 HAH1        -1.8730    -1.1280    -0.8800 hc         1 ODI       0.037450
     23 HAH2        -1.8730    -1.1250     0.8710 hc         1 ODI       0.037450
     24 HAF1        -3.1970     1.0010     0.8710 hc         1 ODI       0.052200
     25 HAF2        -3.1970     0.9980    -0.8880 hc         1 ODI       0.052200
     26 HAD1        -4.3790    -1.1950    -0.8860 h1         1 ODI       0.015450
     27 HAD2        -4.3790    -1.1920     0.8760 h1         1 ODI       0.015450
     28 HAB         -6.3330    -0.3030    -0.0070 ho         1 ODI       0.403000
@<TRIPOS>BOND
     1     1     2 1   
     2     1    11 1   
     3     2     3 1   
     4     2    12 1   
     5     2    13 1   
     6     3     4 1   
     7     3    14 1   
     8     3    15 1   
     9     4     5 1   
    10     4    16 1   
    11     4    17 1   
    12     5     6 1   
    13     5    18 1   
    14     5    19 1   
    15     6     7 1   
    16     6    20 1   
    17     6    21 1   
    18     7     8 1   
    19     7    22 1   
    20     7    23 1   
    21     8     9 1   
    22     8    24 1   
    23     8    25 1   
    24     9    10 1   
    25     9    26 1   
    26     9    27 1   
    27    10    28 1   
@<TRIPOS>SUBSTRUCTURE
     1 ODI         1 TEMP              0 ****  ****    0 ROOT
