@<TRIPOS>MOLECULE
ODJ
   56    60     1     0     0
SMALL
abcg2


@<TRIPOS>ATOM
      1 C13          7.8820    -0.3760    -7.7780 ca         1 ODJ      -0.136000
      2 C18         -3.0120     2.3990   -11.6280 cc         1 ODJ      -0.380800
      3 C17         -2.1620     1.6560   -10.6980 c          1 ODJ       0.656300
      4 C16         -0.8970     2.3490    -7.8580 c3         1 ODJ      -0.050800
      5 C15          6.4500    -2.9770    -3.4720 c3         1 ODJ       0.079900
      6 C19         -4.4050     2.2260   -11.7720 cd         1 ODJ      -0.042000
      7 C20         -2.6930     3.4240   -12.5340 cc         1 ODJ       0.409500
      8 C21         -5.3990     1.4070   -11.2020 cd         1 ODJ      -0.060000
      9 C22         -6.6950     1.5430   -11.6100 cc         1 ODJ      -0.103000
     10 C23         -7.0490     2.4990   -12.6000 cc         1 ODJ       0.105100
     11 C24         -6.0820     3.2940   -13.1570 cd         1 ODJ      -0.189000
     12 C11          8.2040    -1.7400    -5.7860 ca         1 ODJ      -0.119000
     13 C12          8.7150    -1.0930    -6.8930 ca         1 ODJ      -0.077000
     14 C1           0.1600     1.3370    -9.9330 ca         1 ODJ      -0.065000
     15 C2           1.1920     0.6170   -10.5320 ca         1 ODJ      -0.104000
     16 C3           2.2010     0.0530    -9.7720 ca         1 ODJ      -0.159000
     17 C4           2.1840     0.1940    -8.3820 ca         1 ODJ      -0.022000
     18 C5           1.1580     0.9250    -7.7840 ca         1 ODJ      -0.124000
     19 C6           0.1470     1.5150    -8.5430 ca         1 ODJ      -0.030300
     20 N2           3.2500    -0.3700    -7.6610 ns         1 ODJ      -0.147000
     21 C7           3.3380    -0.6180    -6.3220 c          1 ODJ       0.561800
     22 O1           2.4170    -0.4390    -5.5300 o          1 ODJ      -0.556100
     23 C8           4.6630    -1.1260    -5.8920 cc         1 ODJ       0.279900
     24 N3           4.7440    -1.8380    -4.7730 nd         1 ODJ      -0.444100
     25 N4           6.0320    -2.1580    -4.5930 na         1 ODJ       0.075600
     26 C9           6.8210    -1.6580    -5.5900 ca         1 ODJ      -0.045200
     27 C10          5.9620    -0.9620    -6.4730 ca         1 ODJ      -0.202900
     28 C14          6.5180    -0.2980    -7.5810 ca         1 ODJ      -0.052000
     29 O2          -2.6270     0.8430    -9.8960 o          1 ODJ      -0.607100
     30 N5          -4.7930     3.1360   -12.7290 na         1 ODJ       0.336400
     31 N6          -3.7560     3.8730   -13.2020 nd         1 ODJ      -0.583100
     32 O3          -8.3610     2.5520   -12.9270 os         1 ODJ      -0.333100
     33 C25         -8.7630     3.5060   -13.9130 c3         1 ODJ       0.142900
     34 H1           8.3270     0.1280    -8.6260 ha         1 ODJ       0.117000
     35 H2          -1.8230     1.7860    -7.7330 hc         1 ODJ       0.051700
     36 H3          -0.5480     2.6680    -6.8760 hc         1 ODJ       0.051700
     37 H4          -1.1410     3.2340    -8.4490 hc         1 ODJ       0.051700
     38 H5           5.6100    -3.0670    -2.7910 h1         1 ODJ       0.059367
     39 H6           6.7540    -3.9670    -3.8160 h1         1 ODJ       0.059367
     40 H7           7.2870    -2.5010    -2.9610 h1         1 ODJ       0.059367
     41 H8          -1.7300     3.8710   -12.7300 h4         1 ODJ       0.044800
     42 H9          -5.1130     0.6890   -10.4490 ha         1 ODJ       0.168000
     43 H10         -7.4810     0.9290   -11.1890 ha         1 ODJ       0.143000
     44 H11         -6.2380     4.0480   -13.9100 h4         1 ODJ       0.166000
     45 H12          8.8410    -2.2820    -5.1000 ha         1 ODJ       0.123000
     46 H13          9.7800    -1.1290    -7.0850 ha         1 ODJ       0.116000
     47 H14         -0.4880     2.4300   -11.5720 hn         1 ODJ       0.147000
     48 H15          1.1960     0.4970   -11.6090 ha         1 ODJ       0.113000
     49 H16          3.0000    -0.5010   -10.2500 ha         1 ODJ       0.111000
     50 H17          1.1560     1.0610    -6.7150 ha         1 ODJ       0.147000
     51 H18          4.0110    -0.7120    -8.2280 hn         1 ODJ       0.154000
     52 H19          5.9050     0.2750    -8.2640 ha         1 ODJ       0.119000
     53 H21         -9.8370     3.3890   -14.0230 h1         1 ODJ       0.048367
     54 H22         -8.5320     4.5220   -13.5840 h1         1 ODJ       0.048367
     55 H23         -8.2680     3.3080   -14.8680 h1         1 ODJ       0.048367
     56 N1          -0.8250     1.9310   -10.7630 ns         1 ODJ      -0.159000
@<TRIPOS>BOND
     1     1    13 ar  
     2     1    28 ar  
     3     1    34 1   
     4     2     3 1   
     5     2     6 2   
     6     2     7 1   
     7     3    29 2   
     8     3    56 1   
     9     4    19 1   
    10     4    35 1   
    11     4    36 1   
    12     4    37 1   
    13     5    25 1   
    14     5    38 1   
    15     5    39 1   
    16     5    40 1   
    17     6     8 1   
    18     6    30 1   
    19     7    31 2   
    20     7    41 1   
    21     8     9 2   
    22     8    42 1   
    23     9    10 1   
    24     9    43 1   
    25    10    11 2   
    26    10    32 1   
    27    11    30 1   
    28    11    44 1   
    29    12    13 ar  
    30    12    26 ar  
    31    12    45 1   
    32    13    46 1   
    33    14    15 ar  
    34    14    19 ar  
    35    14    56 1   
    36    15    16 ar  
    37    15    48 1   
    38    16    17 ar  
    39    16    49 1   
    40    17    18 ar  
    41    17    20 1   
    42    18    19 ar  
    43    18    50 1   
    44    20    21 1   
    45    20    51 1   
    46    21    22 2   
    47    21    23 1   
    48    23    24 2   
    49    23    27 1   
    50    24    25 1   
    51    25    26 1   
    52    26    27 ar  
    53    27    28 ar  
    54    28    52 1   
    55    30    31 1   
    56    32    33 1   
    57    33    53 1   
    58    33    54 1   
    59    33    55 1   
    60    47    56 1   
@<TRIPOS>SUBSTRUCTURE
     1 ODJ         1 TEMP              0 ****  ****    0 ROOT
