@<TRIPOS>MOLECULE
ODJ
   56    60     1     0     0
SMALL
No Charge or Current Charge


@<TRIPOS>ATOM
      1 C13          7.5550    -0.7370    -8.2830 ca         1 ODJ      -0.136000
      2 C18         -3.1620     2.2640   -11.5140 cc         1 ODJ      -0.380800
      3 C17         -2.4100     1.4700   -10.5230 c          1 ODJ       0.656300
      4 C16         -1.3090     1.9120    -7.4850 c3         1 ODJ      -0.050800
      5 C15          7.1270    -2.5430    -3.4020 c3         1 ODJ       0.079900
      6 C19         -4.4930     2.2240   -11.8130 cd         1 ODJ      -0.042000
      7 C20         -2.6290     3.2570   -12.3750 cc         1 ODJ       0.409500
      8 C21         -5.5430     1.4220   -11.2730 cd         1 ODJ      -0.060000
      9 C22         -6.7810     1.6640   -11.8310 cc         1 ODJ      -0.103000
     10 C23         -6.9320     2.6570   -12.8670 cc         1 ODJ       0.105100
     11 C24         -5.8940     3.4360   -13.3850 cd         1 ODJ      -0.189000
     12 C11          8.2570    -1.7900    -6.1910 ca         1 ODJ      -0.119000
     13 C12          8.5600    -1.3370    -7.4900 ca         1 ODJ      -0.077000
     14 C1          -0.0320     1.2680    -9.6360 ca         1 ODJ      -0.065000
     15 C2           1.1350     0.7750   -10.2440 ca         1 ODJ      -0.104000
     16 C3           2.1870     0.2660    -9.4680 ca         1 ODJ      -0.159000
     17 C4           2.0960     0.2460    -8.0670 ca         1 ODJ      -0.022000
     18 C5           0.9410     0.7750    -7.4510 ca         1 ODJ      -0.124000
     19 C6          -0.1220     1.2930    -8.2200 ca         1 ODJ      -0.030300
     20 N2           3.2010    -0.2790    -7.3430 ns         1 ODJ      -0.147000
     21 C7           3.3590    -0.6470    -6.0130 c          1 ODJ       0.561800
     22 O1           2.4260    -0.6310    -5.2100 o          1 ODJ      -0.556100
     23 C8           4.7530    -1.0990    -5.6470 cc         1 ODJ       0.279900
     24 N3           5.0400    -1.6100    -4.4290 nd         1 ODJ      -0.444100
     25 N4           6.3810    -1.9440    -4.5200 na         1 ODJ       0.075600
     26 C9           6.9390    -1.6370    -5.7380 ca         1 ODJ      -0.045200
     27 C10          5.9510    -1.0810    -6.5020 ca         1 ODJ      -0.202900
     28 C14          6.2390    -0.5920    -7.7950 ca         1 ODJ      -0.052000
     29 O2          -2.9310     0.6210    -9.8110 o          1 ODJ      -0.607100
     30 N5          -4.6560     3.1700   -12.8050 na         1 ODJ       0.336400
     31 N6          -3.5120     3.8360   -13.1820 nd         1 ODJ      -0.583100
     32 O3          -8.1940     2.8520   -13.3820 os         1 ODJ      -0.333100
     33 C25         -8.4780     3.8130   -14.4200 c3         1 ODJ       0.142900
     34 H1           7.8020    -0.3740    -9.2790 ha         1 ODJ       0.117000
     35 H2          -2.0940     1.1680    -7.3080 hc         1 ODJ       0.051700
     36 H3          -1.0090     2.3070    -6.5070 hc         1 ODJ       0.051700
     37 H4          -1.7470     2.7480    -8.0420 hc         1 ODJ       0.051700
     38 H5           6.4590    -2.6980    -2.5470 h1         1 ODJ       0.059367
     39 H6           7.5420    -3.5080    -3.7160 h1         1 ODJ       0.059367
     40 H7           7.9430    -1.8730    -3.1070 h1         1 ODJ       0.059367
     41 H8          -1.5990     3.5830   -12.4380 h4         1 ODJ       0.044800
     42 H9          -5.3930     0.6840   -10.4930 ha         1 ODJ       0.168000
     43 H10         -7.6560     1.1150   -11.5000 ha         1 ODJ       0.143000
     44 H11         -5.9380     4.1920   -14.1560 h4         1 ODJ       0.166000
     45 H12          9.0260    -2.2350    -5.5640 ha         1 ODJ       0.123000
     46 H13          9.5710    -1.4370    -7.8780 ha         1 ODJ       0.116000
     47 H14         -0.7390     2.4270   -11.1800 hn         1 ODJ       0.147000
     48 H15          1.2230     0.7720   -11.3290 ha         1 ODJ       0.113000
     49 H16          3.0760    -0.1210    -9.9620 ha         1 ODJ       0.111000
     50 H17          0.8610     0.8130    -6.3700 ha         1 ODJ       0.147000
     51 H18          4.0230    -0.4230    -7.9100 hn         1 ODJ       0.154000
     52 H19          5.5030    -0.1000    -8.4240 ha         1 ODJ       0.119000
     53 H21         -9.5460     3.7940   -14.6710 h1         1 ODJ       0.048367
     54 H22         -8.2270     4.8300   -14.0920 h1         1 ODJ       0.048367
     55 H23         -7.9130     3.5840   -15.3320 h1         1 ODJ       0.048367
     56 N1          -1.0540     1.7620   -10.4870 ns         1 ODJ      -0.159000
@<TRIPOS>BOND
     1     1    13 ar  
     2     1    28 ar  
     3     1    34 1   
     4     2     3 1   
     5     2     6 2   
     6     2     7 1   
     7     3    29 2   
     8     3    56 1   
     9     4    19 1   
    10     4    35 1   
    11     4    36 1   
    12     4    37 1   
    13     5    25 1   
    14     5    38 1   
    15     5    39 1   
    16     5    40 1   
    17     6     8 1   
    18     6    30 1   
    19     7    31 2   
    20     7    41 1   
    21     8     9 2   
    22     8    42 1   
    23     9    10 1   
    24     9    43 1   
    25    10    11 2   
    26    10    32 1   
    27    11    30 1   
    28    11    44 1   
    29    12    13 ar  
    30    12    26 ar  
    31    12    45 1   
    32    13    46 1   
    33    14    15 ar  
    34    14    19 ar  
    35    14    56 1   
    36    15    16 ar  
    37    15    48 1   
    38    16    17 ar  
    39    16    49 1   
    40    17    18 ar  
    41    17    20 1   
    42    18    19 ar  
    43    18    50 1   
    44    20    21 1   
    45    20    51 1   
    46    21    22 2   
    47    21    23 1   
    48    23    24 2   
    49    23    27 1   
    50    24    25 1   
    51    25    26 1   
    52    26    27 ar  
    53    27    28 ar  
    54    28    52 1   
    55    30    31 1   
    56    32    33 1   
    57    33    53 1   
    58    33    54 1   
    59    33    55 1   
    60    47    56 1   
@<TRIPOS>SUBSTRUCTURE
     1 ODJ         1 TEMP              0 ****  ****    0 ROOT
