@<TRIPOS>MOLECULE
ODK
   20    21     1     0     0
SMALL
No Charge or Current Charge


@<TRIPOS>ATOM
      1 C12          2.5990     1.1750     0.0160 ca         1 ODK      -0.153000
      2 C14          3.9720     0.8780     0.0100 ca         1 ODK      -0.086000
      3 C13          4.3550    -0.4700    -0.0060 ca         1 ODK      -0.199000
      4 C11          3.3620    -1.4620    -0.0150 ca         1 ODK       0.334900
      5 N8           2.0400    -1.1790    -0.0090 nb         1 ODK      -0.667000
      6 C7           1.6490     0.1260     0.0070 ca         1 ODK       0.365000
      7 C4           0.1930     0.4280     0.0130 cc         1 ODK       0.138000
      8 C2          -0.8190    -0.5550     0.0050 cc         1 ODK      -0.183000
      9 C1          -2.0240     0.0860     0.0150 cd         1 ODK      -0.199600
     10 C6          -3.3760    -0.5320     0.0110 c          1 ODK       0.736600
     11 O10         -3.4680    -1.7510    -0.0020 o          1 ODK      -0.710000
     12 O9          -4.3430     0.2140     0.0210 o          1 ODK      -0.710000
     13 N5          -1.6950     1.4440     0.0290 na         1 ODK       0.034800
     14 N3          -0.3130     1.6570     0.0280 nd         1 ODK      -0.578800
     15 H12          2.2720     2.2100     0.0280 ha         1 ODK       0.136000
     16 H14          4.7160     1.6720     0.0170 ha         1 ODK       0.101000
     17 H13          5.4050    -0.7500    -0.0120 ha         1 ODK       0.105000
     18 H11          3.6310    -2.5170    -0.0270 h4         1 ODK       0.004100
     19 H2          -0.6510    -1.6280    -0.0070 ha         1 ODK       0.154000
     20 HN5         -2.3620     2.2160     0.0390 hn         1 ODK       0.376000
@<TRIPOS>BOND
     1     1     2 ar  
     2     1     6 ar  
     3     1    15 1   
     4     2     3 ar  
     5     2    16 1   
     6     3     4 ar  
     7     3    17 1   
     8     4     5 ar  
     9     4    18 1   
    10     5     6 ar  
    11     6     7 1   
    12     7     8 1   
    13     7    14 2   
    14     8     9 2   
    15     8    19 1   
    16     9    10 1   
    17     9    13 1   
    18    10    11 1   
    19    10    12 1   
    20    13    14 1   
    21    13    20 1   
@<TRIPOS>SUBSTRUCTURE
     1 ODK         1 TEMP              0 ****  ****    0 ROOT
