@<TRIPOS>MOLECULE
ODK
   20    21     1     0     0
SMALL
abcg2


@<TRIPOS>ATOM
      1 C12          2.5530     1.1670     0.0180 ca         1 ODK      -0.153000
      2 C14          3.9120     0.9080     0.0120 ca         1 ODK      -0.086000
      3 C13          4.3480    -0.4090    -0.0060 ca         1 ODK      -0.199000
      4 C11          3.3880    -1.4100    -0.0180 ca         1 ODK       0.334900
      5 N8           2.0830    -1.1730    -0.0120 nb         1 ODK      -0.667000
      6 C7           1.6650     0.0910     0.0060 ca         1 ODK       0.365000
      7 C4           0.2140     0.2930     0.0120 cc         1 ODK       0.138000
      8 C2          -0.7940    -0.6880     0.0060 cc         1 ODK      -0.183000
      9 C1          -1.9750     0.0220     0.0150 cd         1 ODK      -0.199600
     10 C6          -3.4180    -0.4060     0.0140 c          1 ODK       0.736600
     11 O10         -3.6210    -1.6310     0.0060 o          1 ODK      -0.710000
     12 O9          -4.2520     0.5190     0.0200 o          1 ODK      -0.710000
     13 N5          -1.6160     1.3210     0.0250 na         1 ODK       0.034800
     14 N3          -0.3120     1.5130     0.0230 nd         1 ODK      -0.578800
     15 H12          2.1810     2.1820     0.0330 ha         1 ODK       0.136000
     16 H14          4.6230     1.7240     0.0220 ha         1 ODK       0.101000
     17 H13          5.4000    -0.6570    -0.0120 ha         1 ODK       0.105000
     18 H11          3.6870    -2.4520    -0.0320 h4         1 ODK       0.004100
     19 H2          -0.6720    -1.7570    -0.0030 ha         1 ODK       0.154000
     20 HN5         -2.2500     2.1050     0.0320 hn         1 ODK       0.376000
@<TRIPOS>BOND
     1     1     2 ar  
     2     1     6 ar  
     3     1    15 1   
     4     2     3 ar  
     5     2    16 1   
     6     3     4 ar  
     7     3    17 1   
     8     4     5 ar  
     9     4    18 1   
    10     5     6 ar  
    11     6     7 1   
    12     7     8 1   
    13     7    14 2   
    14     8     9 2   
    15     8    19 1   
    16     9    10 1   
    17     9    13 1   
    18    10    11 1   
    19    10    12 1   
    20    13    14 1   
    21    13    20 1   
@<TRIPOS>SUBSTRUCTURE
     1 ODK         1 TEMP              0 ****  ****    0 ROOT
