@<TRIPOS>MOLECULE
ODL
   45    47     1     0     0
SMALL
abcg2


@<TRIPOS>ATOM
      1 C12         13.9990   -42.1460    27.6500 ca         1 ODL      -0.132500
      2 C1          23.1380   -43.4730    30.9930 ca         1 ODL       0.111100
      3 C5          20.7500   -41.2170    28.0190 ca         1 ODL      -0.067300
      4 C3          22.2730   -43.0580    28.7650 ca         1 ODL      -0.073300
      5 C10         14.3200   -39.9080    28.4300 ca         1 ODL      -0.269500
      6 C13         13.3900   -42.4670    28.8590 ca         1 ODL      -0.057000
      7 C14         13.2450   -41.5050    29.8460 ca         1 ODL      -0.132500
      8 C16         18.3630   -40.9640    28.3120 ca         1 ODL      -0.090000
      9 C17         19.4560   -41.7390    27.9660 ca         1 ODL      -0.107500
     10 C6          20.9130   -39.9010    28.4300 ca         1 ODL      -0.107500
     11 C11         14.4670   -40.8620    27.4280 ca         1 ODL      -0.011500
     12 S           14.9090   -38.2640    28.1240 sy         1 ODL       1.146600
     13 O2          14.4250   -37.8060    26.8310 o          1 ODL      -0.543500
     14 C15         13.7110   -40.2130    29.6370 ca         1 ODL      -0.011500
     15 N           16.5230   -38.5400    27.9300 n7         1 ODL      -0.894300
     16 C9          17.3370   -38.8130    29.1130 c3         1 ODL       0.261100
     17 C8          18.5310   -39.6450    28.7330 ca         1 ODL      -0.097300
     18 C7          19.8150   -39.1230    28.7840 ca         1 ODL      -0.090000
     19 C2          22.8410   -42.6050    29.9560 ca         1 ODL      -0.167000
     20 C18         22.0070   -44.4100    28.6330 ca         1 ODL      -0.102000
     21 C19         22.3000   -45.2940    29.6680 ca         1 ODL      -0.174000
     22 C           22.8620   -44.8430    30.8500 ca         1 ODL       0.110100
     23 O           23.1710   -45.6420    31.8940 oh         1 ODL      -0.513100
     24 H11         14.1110   -42.8970    26.8800 ha         1 ODL       0.119500
     25 H12         13.0290   -43.4730    29.0280 ha         1 ODL       0.116000
     26 H13         12.7710   -41.7560    30.7860 ha         1 ODL       0.119500
     27 H15         17.3670   -41.3880    28.2610 ha         1 ODL       0.114500
     28 H16         19.3060   -42.7650    27.6510 ha         1 ODL       0.113000
     29 H5          21.9070   -39.4710    28.4710 ha         1 ODL       0.113000
     30 H10         14.9500   -40.6140    26.4920 ha         1 ODL       0.136500
     31 H14         13.6000   -39.4640    30.4090 ha         1 ODL       0.136500
     32 H9          16.9390   -37.8880    27.2730 hn         1 ODL       0.492000
     33 H7          16.7270   -39.3640    29.8330 h1         1 ODL       0.055200
     34 H8          17.6530   -37.8890    29.6040 h1         1 ODL       0.055200
     35 H6          19.9670   -38.0970    29.1020 ha         1 ODL       0.114500
     36 H3          22.7980   -41.4410    27.4600 hc         1 ODL       0.055200
     37 H4          21.7260   -42.6320    26.7480 hc         1 ODL       0.055200
     38 H2          23.0590   -41.5470    30.0780 ha         1 ODL       0.115000
     39 H1          23.8420   -42.1300    32.1510 ho         1 ODL       0.459000
     40 H17         21.5670   -44.7910    27.7190 ha         1 ODL       0.114000
     41 H18         22.0880   -46.3510    29.5490 ha         1 ODL       0.115000
     42 H           22.9390   -46.5550    31.6910 ho         1 ODL       0.459000
     43 C4          21.9360   -42.0790    27.6660 c3         1 ODL       0.017200
     44 O3          14.6180   -37.4620    29.3050 o          1 ODL      -0.543500
     45 O1          23.6870   -43.0810    32.1620 oh         1 ODL      -0.514100
@<TRIPOS>BOND
     1     1     6 ar  
     2     1    11 ar  
     3     1    24 1   
     4     2    19 ar  
     5     2    22 ar  
     6     2    45 1   
     7     3     9 ar  
     8     3    10 ar  
     9     3    43 1   
    10     4    19 ar  
    11     4    20 ar  
    12     4    43 1   
    13     5    11 ar  
    14     5    12 1   
    15     5    14 ar  
    16     6     7 ar  
    17     6    25 1   
    18     7    14 ar  
    19     7    26 1   
    20     8     9 ar  
    21     8    17 ar  
    22     8    27 1   
    23     9    28 1   
    24    10    18 ar  
    25    10    29 1   
    26    11    30 1   
    27    12    13 2   
    28    12    15 1   
    29    12    44 2   
    30    14    31 1   
    31    15    16 1   
    32    15    32 1   
    33    16    17 1   
    34    16    33 1   
    35    16    34 1   
    36    17    18 ar  
    37    18    35 1   
    38    19    38 1   
    39    20    21 ar  
    40    20    40 1   
    41    21    22 ar  
    42    21    41 1   
    43    22    23 1   
    44    23    42 1   
    45    36    43 1   
    46    37    43 1   
    47    39    45 1   
@<TRIPOS>SUBSTRUCTURE
     1 ODL         1 TEMP              0 ****  ****    0 ROOT
