@<TRIPOS>MOLECULE
ODL
   45    47     1     0     0
SMALL
No Charge or Current Charge


@<TRIPOS>ATOM
      1 C12         12.6660   -41.6330    27.9460 ca         1 ODL      -0.132500
      2 C1          23.7270   -43.4460    31.1290 ca         1 ODL       0.111100
      3 C5          20.9930   -41.2870    28.1220 ca         1 ODL      -0.067300
      4 C3          22.7970   -42.8360    28.9540 ca         1 ODL      -0.073300
      5 C10         13.9560   -39.5940    28.3060 ca         1 ODL      -0.269500
      6 C13         12.2960   -41.6410    29.3020 ca         1 ODL      -0.057000
      7 C14         12.7560   -40.6280    30.1600 ca         1 ODL      -0.132500
      8 C16         18.6100   -41.4730    27.6320 ca         1 ODL      -0.090000
      9 C17         19.9300   -41.9180    27.4490 ca         1 ODL      -0.107500
     10 C6          20.7200   -40.2070    28.9830 ca         1 ODL      -0.107500
     11 C11         13.4940   -40.6130    27.4460 ca         1 ODL      -0.011500
     12 S           15.0280   -38.2980    27.6620 sy         1 ODL       1.146600
     13 O2          14.6500   -38.0080    26.2760 o          1 ODL      -0.543500
     14 C15         13.5850   -39.6050    29.6670 ca         1 ODL      -0.011500
     15 N           16.4900   -39.0870    27.5520 n7         1 ODL      -0.894300
     16 C9          16.9030   -39.9170    28.6910 c3         1 ODL       0.261100
     17 C8          18.3350   -40.3920    28.4920 ca         1 ODL      -0.097300
     18 C7          19.3990   -39.7610    29.1670 ca         1 ODL      -0.090000
     19 C2          23.3880   -42.4670    30.1780 ca         1 ODL      -0.167000
     20 C18         22.5450   -44.1950    28.6880 ca         1 ODL      -0.102000
     21 C19         22.8810   -45.1800    29.6330 ca         1 ODL      -0.174000
     22 C           23.4730   -44.8140    30.8540 ca         1 ODL       0.110100
     23 O           23.7920   -45.7900    31.7610 oh         1 ODL      -0.513100
     24 H11         12.3120   -42.4180    27.2820 ha         1 ODL       0.119500
     25 H12         11.6550   -42.4320    29.6870 ha         1 ODL       0.116000
     26 H13         12.4700   -40.6350    31.2100 ha         1 ODL       0.119500
     27 H15         17.7970   -41.9670    27.1040 ha         1 ODL       0.114500
     28 H16         20.1260   -42.7550    26.7830 ha         1 ODL       0.113000
     29 H5          21.5310   -39.7120    29.5130 ha         1 ODL       0.113000
     30 H10         13.7800   -40.6190    26.3950 ha         1 ODL       0.136500
     31 H14         13.9340   -38.8270    30.3450 ha         1 ODL       0.136500
     32 H9          17.1220   -38.2940    27.4870 hn         1 ODL       0.492000
     33 H7          16.2540   -40.7980    28.7930 h1         1 ODL       0.055200
     34 H8          16.8390   -39.3530    29.6330 h1         1 ODL       0.055200
     35 H6          19.2040   -38.9250    29.8350 ha         1 ODL       0.114500
     36 H3          23.1190   -40.9260    27.9950 hc         1 ODL       0.055200
     37 H4          22.5510   -42.1700    26.9140 hc         1 ODL       0.055200
     38 H2          23.5780   -41.4170    30.3860 ha         1 ODL       0.115000
     39 H1          24.3930   -42.0830    32.3100 ho         1 ODL       0.459000
     40 H17         22.0840   -44.4890    27.7470 ha         1 ODL       0.114000
     41 H18         22.6790   -46.2250    29.4090 ha         1 ODL       0.115000
     42 H           23.5390   -46.6600    31.3850 ho         1 ODL       0.459000
     43 C4          22.4240   -41.7720    27.9290 c3         1 ODL       0.017200
     44 O3          15.2230   -37.2490    28.6630 o          1 ODL      -0.543500
     45 O1          24.3010   -43.0590    32.3120 oh         1 ODL      -0.514100
@<TRIPOS>BOND
     1     1     6 ar  
     2     1    11 ar  
     3     1    24 1   
     4     2    19 ar  
     5     2    22 ar  
     6     2    45 1   
     7     3     9 ar  
     8     3    10 ar  
     9     3    43 1   
    10     4    19 ar  
    11     4    20 ar  
    12     4    43 1   
    13     5    11 ar  
    14     5    12 1   
    15     5    14 ar  
    16     6     7 ar  
    17     6    25 1   
    18     7    14 ar  
    19     7    26 1   
    20     8     9 ar  
    21     8    17 ar  
    22     8    27 1   
    23     9    28 1   
    24    10    18 ar  
    25    10    29 1   
    26    11    30 1   
    27    12    13 2   
    28    12    15 1   
    29    12    44 2   
    30    14    31 1   
    31    15    16 1   
    32    15    32 1   
    33    16    17 1   
    34    16    33 1   
    35    16    34 1   
    36    17    18 ar  
    37    18    35 1   
    38    19    38 1   
    39    20    21 ar  
    40    20    40 1   
    41    21    22 ar  
    42    21    41 1   
    43    22    23 1   
    44    23    42 1   
    45    36    43 1   
    46    37    43 1   
    47    39    45 1   
@<TRIPOS>SUBSTRUCTURE
     1 ODL         1 TEMP              0 ****  ****    0 ROOT
