@<TRIPOS>MOLECULE
ODM
   31    30     1     0     0
SMALL
bcc


@<TRIPOS>ATOM
      1 CAA          5.8260    52.1620    32.6030 c3         1 ODM      -0.055400
      2 CAB          6.7050    50.9980    32.9600 c2         1 ODM      -0.113400
      3 CAE          7.9500    51.3720    33.7090 c3         1 ODM      -0.055400
      4 CAC          6.3680    49.7520    32.6190 c2         1 ODM      -0.172200
      5 CAF          7.1120    48.4840    32.9050 c3         1 ODM      -0.039200
      6 CAG          6.4140    47.6450    33.9790 c3         1 ODM      -0.069400
      7 CAH          7.1150    46.3290    34.3280 c3         1 ODM      -0.058700
      8 CAD          6.4870    45.7230    35.5820 c3         1 ODM      -0.089100
      9 CAI          7.1010    45.3470    33.1540 c3         1 ODM      -0.080400
     10 CAJ          7.8870    44.0760    33.4140 c3         1 ODM       0.140400
     11 OAK          7.9390    43.3210    32.2200 oh         1 ODM      -0.601800
     12 H1           6.3720    52.8960    32.0040 hc         1 ODM       0.038200
     13 H2           4.9460    51.8540    32.0370 hc         1 ODM       0.038200
     14 H3           5.4860    52.6870    33.5000 hc         1 ODM       0.038200
     15 H4           8.5930    52.0110    33.0970 hc         1 ODM       0.038200
     16 H5           7.6970    51.9530    34.5990 hc         1 ODM       0.038200
     17 H6           8.5390    50.5150    34.0310 hc         1 ODM       0.038200
     18 H7           5.4270    49.6170    32.0890 ha         1 ODM       0.115000
     19 H8           7.1860    47.9090    31.9770 hc         1 ODM       0.044200
     20 H9           8.1380    48.6850    33.2190 hc         1 ODM       0.044200
     21 H10          6.3430    48.2510    34.8880 hc         1 ODM       0.041700
     22 H11          5.3820    47.4380    33.6720 hc         1 ODM       0.041700
     23 H12          8.1630    46.5650    34.5580 hc         1 ODM       0.042700
     24 H13          6.4890    46.4420    36.4030 hc         1 ODM       0.032700
     25 H14          5.4500    45.4320    35.4000 hc         1 ODM       0.032700
     26 H15          7.0230    44.8380    35.9250 hc         1 ODM       0.032700
     27 H16          7.5270    45.8290    32.2700 hc         1 ODM       0.052700
     28 H17          6.0640    45.0950    32.9060 hc         1 ODM       0.052700
     29 H18          7.4190    43.4980    34.2200 h1         1 ODM       0.015200
     30 H19          8.8960    44.3420    33.7610 h1         1 ODM       0.015200
     31 H20          8.3990    42.4980    32.4080 ho         1 ODM       0.402000
@<TRIPOS>BOND
     1     1     2 1   
     2     1    12 1   
     3     1    13 1   
     4     1    14 1   
     5     2     3 1   
     6     2     4 2   
     7     3    15 1   
     8     3    16 1   
     9     3    17 1   
    10     4     5 1   
    11     4    18 1   
    12     5     6 1   
    13     5    19 1   
    14     5    20 1   
    15     6     7 1   
    16     6    21 1   
    17     6    22 1   
    18     7     8 1   
    19     7     9 1   
    20     7    23 1   
    21     8    24 1   
    22     8    25 1   
    23     8    26 1   
    24     9    10 1   
    25     9    27 1   
    26     9    28 1   
    27    10    11 1   
    28    10    29 1   
    29    10    30 1   
    30    11    31 1   
@<TRIPOS>SUBSTRUCTURE
     1 ODM         1 TEMP              0 ****  ****    0 ROOT
