@<TRIPOS>MOLECULE
ODM
   31    30     1     0     0
SMALL
No Charge or Current Charge


@<TRIPOS>ATOM
      1 CAA          5.9090    52.2610    32.6550 c3         1 ODM      -0.055400
      2 CAB          6.6510    50.9750    32.9690 c2         1 ODM      -0.113400
      3 CAE          7.7970    51.1940    33.9460 c3         1 ODM      -0.055400
      4 CAC          6.3030    49.7910    32.4280 c2         1 ODM      -0.222200
      5 CAF          6.9750    48.4460    32.6380 c3         1 ODM      -0.039200
      6 CAG          6.4030    47.6980    33.8650 c3         1 ODM      -0.069400
      7 CAH          7.1610    46.4000    34.2660 c3         1 ODM      -0.058700
      8 CAD          6.6270    45.8710    35.6210 c3         1 ODM      -0.089100
      9 CAI          7.1130    45.3110    33.1520 c3         1 ODM      -0.080400
     10 CAJ          7.9170    44.0300    33.4660 c3         1 ODM       0.163600
     11 OAK          7.8980    43.1570    32.3320 oh         1 ODM      -0.664000
     12 H1           6.5800    53.0050    32.2090 hc         1 ODM       0.038200
     13 H2           5.0860    52.0950    31.9490 hc         1 ODM       0.038200
     14 H3           5.4780    52.7000    33.5630 hc         1 ODM       0.038200
     15 H4           8.5550    51.8600    33.5180 hc         1 ODM       0.038200
     16 H5           7.4360    51.6540    34.8740 hc         1 ODM       0.038200
     17 H6           8.3010    50.2640    34.2290 hc         1 ODM       0.038200
     18 H7           5.4570    49.7440    31.7400 ha         1 ODM       0.165000
     19 H8           6.8410    47.8370    31.7360 hc         1 ODM       0.044200
     20 H9           8.0570    48.5690    32.7590 hc         1 ODM       0.044200
     21 H10          6.4220    48.3890    34.7180 hc         1 ODM       0.041700
     22 H11          5.3470    47.4640    33.6820 hc         1 ODM       0.041700
     23 H12          8.2130    46.6710    34.4190 hc         1 ODM       0.042700
     24 H13          6.6410    46.6630    36.3790 hc         1 ODM       0.032700
     25 H14          5.5950    45.5120    35.5220 hc         1 ODM       0.032700
     26 H15          7.2450    45.0490    36.0000 hc         1 ODM       0.032700
     27 H16          7.5120    45.7290    32.2210 hc         1 ODM       0.052700
     28 H17          6.0690    45.0390    32.9540 hc         1 ODM       0.052700
     29 H18          7.4810    43.5210    34.3350 h1         1 ODM       0.015200
     30 H19          8.9520    44.3030    33.7150 h1         1 ODM       0.015200
     31 H20          8.4210    42.3610    32.5760 ho         1 ODM       0.441000
@<TRIPOS>BOND
     1     1     2 1   
     2     1    12 1   
     3     1    13 1   
     4     1    14 1   
     5     2     3 1   
     6     2     4 2   
     7     3    15 1   
     8     3    16 1   
     9     3    17 1   
    10     4     5 1   
    11     4    18 1   
    12     5     6 1   
    13     5    19 1   
    14     5    20 1   
    15     6     7 1   
    16     6    21 1   
    17     6    22 1   
    18     7     8 1   
    19     7     9 1   
    20     7    23 1   
    21     8    24 1   
    22     8    25 1   
    23     8    26 1   
    24     9    10 1   
    25     9    27 1   
    26     9    28 1   
    27    10    11 1   
    28    10    29 1   
    29    10    30 1   
    30    11    31 1   
@<TRIPOS>SUBSTRUCTURE
     1 ODM         1 TEMP              0 ****  ****    0 ROOT
