@<TRIPOS>MOLECULE
ODN
   56    60     1     0     0
SMALL
abcg2


@<TRIPOS>ATOM
      1 O3          -1.8510    -1.6790    -1.5470 o          1 ODN      -0.534100
      2 C17         -2.1650    -0.8390    -0.7300 c          1 ODN       0.614100
      3 C10         -1.2440    -0.1990     0.3000 c5         1 ODN      -0.167000
      4 C18         -0.2810    -1.1500     1.0350 c6         1 ODN       0.407000
      5 O4          -0.9970    -2.1750     1.6120 oh         1 ODN      -0.610000
      6 O1           0.3450    -0.4050     2.0620 os         1 ODN      -0.485000
      7 C8           0.9800     0.7890     1.6170 c6         1 ODN       0.184600
      8 C19          0.8750    -1.7020     0.1740 c6         1 ODN       0.120300
      9 O5           0.5000    -2.6960    -0.7380 oh         1 ODN      -0.729000
     10 C6           1.6650    -0.5330    -0.4440 c6         1 ODN      -0.074700
     11 C3           3.2010    -0.7450    -0.3970 c6         1 ODN      -0.030000
     12 C5           3.5540    -1.9630    -1.2570 c3         1 ODN      -0.085100
     13 C4           3.7890    -0.9810     0.9990 c3         1 ODN      -0.085100
     14 C2           3.8560     0.4860    -1.0280 c6         1 ODN      -0.068400
     15 C1           3.4330     1.7670    -0.3380 c6         1 ODN      -0.111400
     16 C13         -3.5240    -0.1960    -0.6570 c5         1 ODN      -0.166700
     17 C14         -4.2530    -0.0800    -1.9830 c3         1 ODN      -0.070100
     18 C12         -3.2310     1.0820     0.1430 c5         1 ODN      -0.102700
     19 C11         -2.2500     0.5530     1.2020 c5         1 ODN       0.188300
     20 O2          -2.8770    -0.3250     2.1020 oh         1 ODN      -0.627000
     21 C15         -2.5460     2.1830    -0.6910 c6         1 ODN      -0.074400
     22 C16         -1.0380     2.2510    -0.4470 c6         1 ODN      -0.071400
     23 C9          -0.3710     0.8720    -0.4660 c6         1 ODN      -0.044700
     24 C7           1.0870     0.8090     0.0910 c6         1 ODN      -0.062000
     25 C            1.9290     1.9940    -0.4170 c6         1 ODN       0.186300
     26 O            1.5900     3.1560     0.3120 oh         1 ODN      -0.665000
     27 H1          -0.4150    -2.9310     1.7560 ho         1 ODN       0.462000
     28 H2           0.4050     1.6520     1.9700 h1         1 ODN       0.053700
     29 H3           1.9550     0.8490     2.1040 h1         1 ODN       0.053700
     30 H4           1.5200    -2.2100     0.9000 h1         1 ODN       0.079700
     31 H5          -0.2710    -2.3800    -1.2400 ho         1 ODN       0.539000
     32 H6           1.4280    -0.5310    -1.5160 hc         1 ODN       0.055700
     33 H7           3.1770    -1.8520    -2.2760 hc         1 ODN       0.037700
     34 H8           4.6390    -2.0770    -1.3140 hc         1 ODN       0.037700
     35 H9           3.1510    -2.8910    -0.8520 hc         1 ODN       0.037700
     36 H10          3.3730    -1.8650     1.4840 hc         1 ODN       0.037700
     37 H11          4.8640    -1.1540     0.9080 hc         1 ODN       0.037700
     38 H12          3.6610    -0.1430     1.6810 hc         1 ODN       0.037700
     39 H13          4.9440     0.3830    -1.0000 hc         1 ODN       0.044200
     40 H14          3.5790     0.5360    -2.0870 hc         1 ODN       0.044200
     41 H15          3.7550     1.7680     0.7080 hc         1 ODN       0.047200
     42 H16          3.9300     2.6220    -0.8090 hc         1 ODN       0.047200
     43 H17         -4.1110    -0.8540    -0.0040 hc         1 ODN       0.093700
     44 H18         -3.6750     0.4510    -2.7370 hc         1 ODN       0.042033
     45 H19         -4.4880    -1.0660    -2.3820 hc         1 ODN       0.042033
     46 H20         -5.1960     0.4520    -1.8470 hc         1 ODN       0.042033
     47 H21         -4.1430     1.4690     0.6010 hc         1 ODN       0.061700
     48 H22         -1.7710     1.3680     1.7520 h1         1 ODN       0.058700
     49 H23         -3.5660     0.1740     2.5530 ho         1 ODN       0.439000
     50 H24         -2.7410     2.0340    -1.7550 hc         1 ODN       0.046200
     51 H25         -2.9780     3.1540    -0.4460 hc         1 ODN       0.046200
     52 H26         -0.5830     2.8770    -1.2140 hc         1 ODN       0.054700
     53 H27         -0.8510     2.7580     0.4980 hc         1 ODN       0.054700
     54 H28         -0.3070     0.5670    -1.5160 hc         1 ODN       0.055700
     55 H29          1.6750     2.1190    -1.4830 h1         1 ODN       0.029700
     56 H30          2.1120     3.8850    -0.0360 ho         1 ODN       0.445000
@<TRIPOS>BOND
     1     1     2 2   
     2     2     3 1   
     3     2    16 1   
     4     3     4 1   
     5     3    19 1   
     6     3    23 1   
     7     4     5 1   
     8     4     6 1   
     9     4     8 1   
    10     5    27 1   
    11     6     7 1   
    12     7    24 1   
    13     7    28 1   
    14     7    29 1   
    15     8     9 1   
    16     8    10 1   
    17     8    30 1   
    18     9    31 1   
    19    10    11 1   
    20    10    24 1   
    21    10    32 1   
    22    11    12 1   
    23    11    13 1   
    24    11    14 1   
    25    12    33 1   
    26    12    34 1   
    27    12    35 1   
    28    13    36 1   
    29    13    37 1   
    30    13    38 1   
    31    14    15 1   
    32    14    39 1   
    33    14    40 1   
    34    15    25 1   
    35    15    41 1   
    36    15    42 1   
    37    16    17 1   
    38    16    18 1   
    39    16    43 1   
    40    17    44 1   
    41    17    45 1   
    42    17    46 1   
    43    18    19 1   
    44    18    21 1   
    45    18    47 1   
    46    19    20 1   
    47    19    48 1   
    48    20    49 1   
    49    21    22 1   
    50    21    50 1   
    51    21    51 1   
    52    22    23 1   
    53    22    52 1   
    54    22    53 1   
    55    23    24 1   
    56    23    54 1   
    57    24    25 1   
    58    25    26 1   
    59    25    55 1   
    60    26    56 1   
@<TRIPOS>SUBSTRUCTURE
     1 ODN         1 TEMP              0 ****  ****    0 ROOT
