@<TRIPOS>MOLECULE
ODN
   56    60     1     0     0
SMALL
No Charge or Current Charge


@<TRIPOS>ATOM
      1 O3          -1.7570    -1.3670    -1.8250 o          1 ODN      -0.534100
      2 C17         -2.1810    -0.9650    -0.7460 c          1 ODN       0.614100
      3 C10         -1.2660    -0.2400     0.2820 c5         1 ODN      -0.167000
      4 C18         -0.2480    -1.2040     0.9950 c6         1 ODN       0.407000
      5 O4          -0.9310    -2.2500     1.6590 oh         1 ODN      -0.610000
      6 O1           0.4340    -0.4570     2.0270 os         1 ODN      -0.485000
      7 C8           1.0710     0.7730     1.5670 c6         1 ODN       0.184600
      8 C19          0.8870    -1.7900     0.0490 c6         1 ODN       0.120300
      9 O5           0.4130    -2.6440    -1.0230 oh         1 ODN      -0.729000
     10 C6           1.7460    -0.5890    -0.5390 c6         1 ODN      -0.074700
     11 C3           3.3080    -0.8090    -0.4180 c6         1 ODN      -0.030000
     12 C5           3.7430    -2.0470    -1.2650 c3         1 ODN      -0.085100
     13 C4           3.8550    -1.0700     1.0300 c3         1 ODN      -0.085100
     14 C2           3.9980     0.4800    -1.0080 c6         1 ODN      -0.068400
     15 C1           3.5250     1.8360    -0.3790 c6         1 ODN      -0.111400
     16 C13         -3.5590    -0.2720    -0.6010 c5         1 ODN      -0.166700
     17 C14         -4.3490    -0.1000    -1.9270 c3         1 ODN      -0.070100
     18 C12         -3.2860     1.0190     0.2470 c5         1 ODN      -0.102700
     19 C11         -2.2980     0.4030     1.2880 c5         1 ODN       0.188300
     20 O2          -2.9330    -0.5460     2.1530 oh         1 ODN      -0.627000
     21 C15         -2.6570     2.2340    -0.5190 c6         1 ODN      -0.074400
     22 C16         -1.1130     2.3010    -0.3480 c6         1 ODN      -0.071400
     23 C9          -0.4150     0.9000    -0.4580 c6         1 ODN      -0.044700
     24 C7           1.1350     0.8090     0.0040 c6         1 ODN      -0.062000
     25 C            1.9960     2.0220    -0.5430 c6         1 ODN       0.186300
     26 O            1.6600     3.2500     0.1070 oh         1 ODN      -0.665000
     27 H1          -1.6880    -1.7780     2.0850 ho         1 ODN       0.462000
     28 H2           0.4910     1.6260     1.9430 h1         1 ODN       0.053700
     29 H3           2.0610     0.8610     2.0230 h1         1 ODN       0.053700
     30 H4           1.4890    -2.4300     0.7240 h1         1 ODN       0.079700
     31 H5          -0.3340    -2.1650    -1.4740 ho         1 ODN       0.539000
     32 H6           1.5520    -0.5650    -1.6210 hc         1 ODN       0.055700
     33 H7           3.4010    -1.9630    -2.3040 hc         1 ODN       0.037700
     34 H8           4.8340    -2.1530    -1.2920 hc         1 ODN       0.037700
     35 H9           3.3360    -2.9810    -0.8610 hc         1 ODN       0.037700
     36 H10          3.3600    -1.9090     1.5300 hc         1 ODN       0.037700
     37 H11          4.9230    -1.3160     0.9990 hc         1 ODN       0.037700
     38 H12          3.7770    -0.2010     1.6850 hc         1 ODN       0.037700
     39 H13          5.0890     0.3970    -0.8990 hc         1 ODN       0.044200
     40 H14          3.8170     0.5220    -2.0910 hc         1 ODN       0.044200
     41 H15          3.8040     1.8770     0.6820 hc         1 ODN       0.047200
     42 H16          4.0550     2.6640    -0.8670 hc         1 ODN       0.047200
     43 H17         -4.1660    -0.9350     0.0270 hc         1 ODN       0.093700
     44 H18         -3.7660     0.4320    -2.6870 hc         1 ODN       0.042033
     45 H19         -4.6200    -1.0760    -2.3490 hc         1 ODN       0.042033
     46 H20         -5.2790     0.4580    -1.7610 hc         1 ODN       0.042033
     47 H21         -4.2050     1.3930     0.7140 hc         1 ODN       0.061700
     48 H22         -1.8270     1.1750     1.9110 h1         1 ODN       0.058700
     49 H23         -3.6030    -0.0490     2.6750 ho         1 ODN       0.439000
     50 H24         -2.9120     2.2060    -1.5850 hc         1 ODN       0.046200
     51 H25         -3.0910     3.1700    -0.1380 hc         1 ODN       0.046200
     52 H26         -0.7040     2.9860    -1.1030 hc         1 ODN       0.054700
     53 H27         -0.8940     2.7630     0.6230 hc         1 ODN       0.054700
     54 H28         -0.4080     0.6890    -1.5360 hc         1 ODN       0.055700
     55 H29          1.7910     2.1100    -1.6210 h1         1 ODN       0.029700
     56 H30          2.1850     3.9530    -0.3320 ho         1 ODN       0.445000
@<TRIPOS>BOND
     1     1     2 2   
     2     2     3 1   
     3     2    16 1   
     4     3     4 1   
     5     3    19 1   
     6     3    23 1   
     7     4     5 1   
     8     4     6 1   
     9     4     8 1   
    10     5    27 1   
    11     6     7 1   
    12     7    24 1   
    13     7    28 1   
    14     7    29 1   
    15     8     9 1   
    16     8    10 1   
    17     8    30 1   
    18     9    31 1   
    19    10    11 1   
    20    10    24 1   
    21    10    32 1   
    22    11    12 1   
    23    11    13 1   
    24    11    14 1   
    25    12    33 1   
    26    12    34 1   
    27    12    35 1   
    28    13    36 1   
    29    13    37 1   
    30    13    38 1   
    31    14    15 1   
    32    14    39 1   
    33    14    40 1   
    34    15    25 1   
    35    15    41 1   
    36    15    42 1   
    37    16    17 1   
    38    16    18 1   
    39    16    43 1   
    40    17    44 1   
    41    17    45 1   
    42    17    46 1   
    43    18    19 1   
    44    18    21 1   
    45    18    47 1   
    46    19    20 1   
    47    19    48 1   
    48    20    49 1   
    49    21    22 1   
    50    21    50 1   
    51    21    51 1   
    52    22    23 1   
    53    22    52 1   
    54    22    53 1   
    55    23    24 1   
    56    23    54 1   
    57    24    25 1   
    58    25    26 1   
    59    25    55 1   
    60    26    56 1   
@<TRIPOS>SUBSTRUCTURE
     1 ODN         1 TEMP              0 ****  ****    0 ROOT
