@<TRIPOS>MOLECULE
ODO
   21    21     1     0     0
SMALL
No Charge or Current Charge


@<TRIPOS>ATOM
      1 O11          3.0920     1.1560    -0.0480 oh         1 ODO      -0.494000
      2 C8           2.3480    -1.8930    -0.1320 c3         1 ODO      -0.163400
      3 C7           1.6830    -0.6120     0.3330 ce         1 ODO       0.490900
      4 C2           0.2160    -0.4300     0.0890 ca         1 ODO      -0.296900
      5 C3          -0.3360     0.8110    -0.2970 ca         1 ODO       0.241100
      6 C4          -1.7170     0.9540    -0.4840 ca         1 ODO      -0.276000
      7 C5          -2.5690    -0.1330    -0.2690 ca         1 ODO       0.200100
      8 O12         -3.9100     0.0040    -0.4470 oh         1 ODO      -0.527100
      9 C6          -2.0440    -1.3640     0.1360 ca         1 ODO      -0.199000
     10 C1          -0.6600    -1.5140     0.3220 ca         1 ODO      -0.010000
     11 N            2.3770     0.3540     0.8660 n2         1 ODO      -0.425700
     12 H11          3.6880     1.7270     0.5020 ho         1 ODO       0.468000
     13 H81C         1.6800    -2.5030    -0.7500 hc         1 ODO       0.060033
     14 H82C         3.2370    -1.6760    -0.7350 hc         1 ODO       0.060033
     15 H83C         2.6650    -2.4990     0.7240 hc         1 ODO       0.060033
     16 H1          -0.2750    -2.4770     0.6550 ha         1 ODO       0.114000
     17 H10          1.3770     1.6130    -0.2750 ho         1 ODO       0.514000
     18 H4          -2.1160     1.9150    -0.7950 ha         1 ODO       0.131000
     19 H12         -4.0870     0.9270    -0.7270 ho         1 ODO       0.470000
     20 H6          -2.7090    -2.2050     0.3140 ha         1 ODO       0.133000
     21 O10          0.4570     1.8870    -0.5270 oh         1 ODO      -0.549100
@<TRIPOS>BOND
     1     1    11 1   
     2     1    12 1   
     3     2     3 1   
     4     2    13 1   
     5     2    14 1   
     6     2    15 1   
     7     3     4 1   
     8     3    11 2   
     9     4     5 ar  
    10     4    10 ar  
    11     5     6 ar  
    12     5    21 1   
    13     6     7 ar  
    14     6    18 1   
    15     7     8 1   
    16     7     9 ar  
    17     8    19 1   
    18     9    10 ar  
    19     9    20 1   
    20    10    16 1   
    21    17    21 1   
@<TRIPOS>SUBSTRUCTURE
     1 ODO         1 TEMP              0 ****  ****    0 ROOT
