@<TRIPOS>MOLECULE
ODO
   21    21     1     0     0
SMALL
abcg2


@<TRIPOS>ATOM
      1 O11          3.7020     0.5130     0.0170 oh         1 ODO      -0.494000
      2 C8           2.2970    -1.8140     0.0870 c3         1 ODO      -0.163400
      3 C7           1.6810    -0.4510    -0.0050 ce         1 ODO       0.490900
      4 C2           0.2160    -0.3290    -0.0640 ca         1 ODO      -0.296900
      5 C3          -0.4400     0.9200    -0.1540 ca         1 ODO       0.241100
      6 C4          -1.8300     0.9840    -0.2130 ca         1 ODO      -0.276000
      7 C5          -2.5940    -0.1740    -0.1820 ca         1 ODO       0.200100
      8 O12         -3.9350    -0.1500    -0.2370 oh         1 ODO      -0.527100
      9 C6          -1.9680    -1.4180    -0.0910 ca         1 ODO      -0.199000
     10 C1          -0.5910    -1.4720    -0.0340 ca         1 ODO      -0.010000
     11 N            2.3480     0.6410    -0.0370 n2         1 ODO      -0.425700
     12 H11          4.0240     1.4200    -0.0140 ho         1 ODO       0.468000
     13 H81C         1.9980    -2.4230    -0.7660 hc         1 ODO       0.060033
     14 H82C         3.3810    -1.7830     0.1150 hc         1 ODO       0.060033
     15 H83C         1.9500    -2.3250     0.9850 hc         1 ODO       0.060033
     16 H1          -0.1300    -2.4480     0.0370 ha         1 ODO       0.114000
     17 H10          1.1850     1.8830    -0.1430 ho         1 ODO       0.514000
     18 H4          -2.3040     1.9570    -0.2850 ha         1 ODO       0.131000
     19 H12         -4.2550     0.7570    -0.3060 ho         1 ODO       0.470000
     20 H6          -2.5570    -2.3250    -0.0670 ha         1 ODO       0.133000
     21 O10          0.2180     2.0810    -0.1890 oh         1 ODO      -0.549100
@<TRIPOS>BOND
     1     1    11 1   
     2     1    12 1   
     3     2     3 1   
     4     2    13 1   
     5     2    14 1   
     6     2    15 1   
     7     3     4 1   
     8     3    11 2   
     9     4     5 ar  
    10     4    10 ar  
    11     5     6 ar  
    12     5    21 1   
    13     6     7 ar  
    14     6    18 1   
    15     7     8 1   
    16     7     9 ar  
    17     8    19 1   
    18     9    10 ar  
    19     9    20 1   
    20    10    16 1   
    21    17    21 1   
@<TRIPOS>SUBSTRUCTURE
     1 ODO         1 TEMP              0 ****  ****    0 ROOT
