@<TRIPOS>MOLECULE
ODR
   38    39     1     0     0
SMALL
bcc


@<TRIPOS>ATOM
      1 CAA          2.5230     4.6330    -0.2170 c3         1 ODR      -0.094100
      2 CAB          1.5070     3.5160    -0.1950 c3         1 ODR       0.142400
      3 OAC          2.2090     2.2830    -0.1270 os         1 ODR      -0.325900
      4 CAD          1.5120     1.1340    -0.0480 ca         1 ODR       0.144100
      5 CAE          2.2700    -0.0340     0.0550 ca         1 ODR      -0.133000
      6 CAF          1.6440    -1.2660     0.1470 ca         1 ODR      -0.045300
      7 CAG          0.2540    -1.3320     0.1440 ca         1 ODR      -0.159000
      8 CAH         -0.5110    -0.1770     0.0250 ca         1 ODR       0.036000
      9 CAI          0.1230     1.0640    -0.0710 ca         1 ODR      -0.208000
     10 CAJ         -1.9730    -0.2600     0.0090 cc         1 ODR      -0.308600
     11 CAK         -2.9170     0.5540     0.7060 cc         1 ODR       0.358600
     12 CAL         -2.6590     1.7090     1.6050 c3         1 ODR      -0.134400
     13 NAM         -4.1330     0.1550     0.4750 nd         1 ODR      -0.368300
     14 OAN         -4.0360    -0.9080    -0.3760 os         1 ODR      -0.118100
     15 CAO         -2.7550    -1.1580    -0.6500 cd         1 ODR       0.310000
     16 CAP         -2.4560    -2.2820    -1.5660 c3         1 ODR      -0.138400
     17 CAQ          2.4450    -2.5420     0.2100 c3         1 ODR       0.196400
     18 OAR          3.6160    -2.2990     0.9580 oh         1 ODR      -0.591800
     19 CAS          2.7640    -3.0380    -1.1970 c3         1 ODR      -0.129100
     20 HAA          3.1370     4.6290     0.6840 hc         1 ODR       0.047700
     21 HAAA         3.1760     4.5600    -1.0860 hc         1 ODR       0.047700
     22 HAAB         2.0060     5.5910    -0.2650 hc         1 ODR       0.047700
     23 HAB          0.8430     3.6200     0.6710 h1         1 ODR       0.032200
     24 HABA         0.8830     3.5480    -1.0940 h1         1 ODR       0.032200
     25 HAE          3.3500     0.0430     0.0650 ha         1 ODR       0.160000
     26 HAG         -0.2350    -2.2920     0.2640 ha         1 ODR       0.130000
     27 HAI         -0.4790     1.9550    -0.1790 ha         1 ODR       0.137000
     28 HAL         -2.4060     2.6030     1.0340 hc         1 ODR       0.056700
     29 HALA        -3.5390     1.9360     2.2030 hc         1 ODR       0.056700
     30 HALB        -1.8260     1.5030     2.2770 hc         1 ODR       0.056700
     31 HAP         -2.4850    -3.2390    -1.0430 hc         1 ODR       0.063700
     32 HAPA        -3.1760    -2.3270    -2.3820 hc         1 ODR       0.063700
     33 HAPB        -1.4610    -2.1660    -1.9900 hc         1 ODR       0.063700
     34 HAQ          1.8260    -3.3040     0.7050 h1         1 ODR       0.034700
     35 HOAR         4.1610    -3.0920     0.9290 ho         1 ODR       0.405000
     36 HAS          3.3550    -2.3030    -1.7460 hc         1 ODR       0.043367
     37 HASA         3.3250    -3.9750    -1.1610 hc         1 ODR       0.043367
     38 HASB         1.8490    -3.2280    -1.7580 hc         1 ODR       0.043367
@<TRIPOS>BOND
     1     1     2 1   
     2     1    20 1   
     3     1    21 1   
     4     1    22 1   
     5     2     3 1   
     6     2    23 1   
     7     2    24 1   
     8     3     4 1   
     9     4     5 ar  
    10     4     9 ar  
    11     5     6 ar  
    12     5    25 1   
    13     6     7 ar  
    14     6    17 1   
    15     7     8 ar  
    16     7    26 1   
    17     8     9 ar  
    18     8    10 1   
    19     9    27 1   
    20    10    11 1   
    21    10    15 2   
    22    11    12 1   
    23    11    13 2   
    24    12    28 1   
    25    12    29 1   
    26    12    30 1   
    27    13    14 1   
    28    14    15 1   
    29    15    16 1   
    30    16    31 1   
    31    16    32 1   
    32    16    33 1   
    33    17    18 1   
    34    17    19 1   
    35    17    34 1   
    36    18    35 1   
    37    19    36 1   
    38    19    37 1   
    39    19    38 1   
@<TRIPOS>SUBSTRUCTURE
     1 ODR         1 TEMP              0 ****  ****    0 ROOT
