@<TRIPOS>MOLECULE
ODR
   38    39     1     0     0
SMALL
No Charge or Current Charge


@<TRIPOS>ATOM
      1 CAA          2.5680     4.6440    -0.2340 c3         1 ODR      -0.094100
      2 CAB          1.4890     3.5540    -0.1380 c3         1 ODR       0.165600
      3 OAC          2.1570     2.2810    -0.1420 os         1 ODR      -0.349100
      4 CAD          1.4700     1.0870    -0.0550 ca         1 ODR       0.144100
      5 CAE          2.2190    -0.0970    -0.0540 ca         1 ODR      -0.115000
      6 CAF          1.5810    -1.3490     0.0300 ca         1 ODR      -0.045300
      7 CAG          0.1750    -1.3960     0.1110 ca         1 ODR      -0.141000
      8 CAH         -0.6020    -0.2170     0.1040 ca         1 ODR       0.036000
      9 CAI          0.0620     1.0240     0.0250 ca         1 ODR      -0.190000
     10 CAJ         -2.0720    -0.2810     0.1950 cc         1 ODR      -0.178000
     11 CAK         -3.0320     0.6400     0.6850 cc         1 ODR       0.293300
     12 CAL         -2.7040     1.8770     1.4750 c3         1 ODR      -0.134400
     13 NAM         -4.2820     0.2860     0.4400 nd         1 ODR      -0.368300
     14 OAN         -4.1540    -0.9350    -0.3030 os         1 ODR      -0.073700
     15 CAO         -2.8220    -1.2210    -0.4540 cd         1 ODR       0.200300
     16 CAP         -2.4580    -2.3770    -1.3510 c3         1 ODR      -0.138400
     17 CAQ          2.3950    -2.6440     0.0380 c3         1 ODR       0.219600
     18 OAR          3.3330    -2.6350     1.1180 oh         1 ODR      -0.654000
     19 CAS          3.1560    -2.8610    -1.2830 c3         1 ODR      -0.129100
     20 HAA          3.2530     4.5850     0.6200 hc         1 ODR       0.047700
     21 HAAA         3.1470     4.5350    -1.1580 hc         1 ODR       0.047700
     22 HAAB         2.1040     5.6370    -0.2350 hc         1 ODR       0.047700
     23 HAB          0.9140     3.6900     0.7870 h1         1 ODR       0.032200
     24 HABA         0.8080     3.6390    -0.9950 h1         1 ODR       0.032200
     25 HAE          3.3020    -0.0410    -0.1110 ha         1 ODR       0.142000
     26 HAG         -0.3070    -2.3620     0.2160 ha         1 ODR       0.112000
     27 HAI         -0.5210     1.9350    -0.0130 ha         1 ODR       0.119000
     28 HAL         -2.5620     2.7380     0.8120 hc         1 ODR       0.056700
     29 HALA        -3.5150     2.1230     2.1700 hc         1 ODR       0.056700
     30 HALB        -1.7940     1.7390     2.0700 hc         1 ODR       0.056700
     31 HAP         -2.2470    -3.2790    -0.7650 hc         1 ODR       0.063700
     32 HAPA        -3.2790    -2.6140    -2.0380 hc         1 ODR       0.063700
     33 HAPB        -1.5780    -2.1450    -1.9620 hc         1 ODR       0.063700
     34 HAQ          1.7030    -3.4890     0.1660 h1         1 ODR       0.034700
     35 HOAR         3.7910    -3.5030     1.1020 ho         1 ODR       0.444000
     36 HAS          3.8940    -2.0680    -1.4520 hc         1 ODR       0.043367
     37 HASA         3.6800    -3.8240    -1.2760 hc         1 ODR       0.043367
     38 HASB         2.4570    -2.8630    -2.1280 hc         1 ODR       0.043367
@<TRIPOS>BOND
     1     1     2 1   
     2     1    20 1   
     3     1    21 1   
     4     1    22 1   
     5     2     3 1   
     6     2    23 1   
     7     2    24 1   
     8     3     4 1   
     9     4     5 ar  
    10     4     9 ar  
    11     5     6 ar  
    12     5    25 1   
    13     6     7 ar  
    14     6    17 1   
    15     7     8 ar  
    16     7    26 1   
    17     8     9 ar  
    18     8    10 1   
    19     9    27 1   
    20    10    11 1   
    21    10    15 2   
    22    11    12 1   
    23    11    13 2   
    24    12    28 1   
    25    12    29 1   
    26    12    30 1   
    27    13    14 1   
    28    14    15 1   
    29    15    16 1   
    30    16    31 1   
    31    16    32 1   
    32    16    33 1   
    33    17    18 1   
    34    17    19 1   
    35    17    34 1   
    36    18    35 1   
    37    19    36 1   
    38    19    37 1   
    39    19    38 1   
@<TRIPOS>SUBSTRUCTURE
     1 ODR         1 TEMP              0 ****  ****    0 ROOT
