@<TRIPOS>MOLECULE
ODS
   21    21     1     0     0
SMALL
No Charge or Current Charge


@<TRIPOS>ATOM
      1 N1          -0.8270     0.0410    -0.1500 n          1 ODS      -0.453800
      2 C           -2.2190     0.0880    -0.3450 c          1 ODS       0.738000
      3 O           -2.7640     1.1770    -0.3950 o          1 ODS      -0.738500
      4 C2          -0.0010     1.2870    -0.2430 c6         1 ODS       0.106500
      5 C3           1.4560     1.1710     0.2920 c6         1 ODS       0.153300
      6 N4           2.1520    -0.0470    -0.1900 n3         1 ODS      -0.716600
      7 CM           3.5630    -0.0990     0.2430 c3         1 ODS       0.159100
      8 C5           1.3840    -1.2420     0.2380 c6         1 ODS       0.153300
      9 C6          -0.0760    -1.2460    -0.2990 c6         1 ODS       0.106500
     10 OXT         -2.8290    -0.9640    -0.4430 o          1 ODS      -0.738500
     11 H21          0.0410     1.5850    -1.3000 h1         1 ODS       0.032700
     12 H22         -0.4980     2.1020     0.3010 h1         1 ODS       0.032700
     13 H31          2.0110     2.0720    -0.0090 h1         1 ODS       0.015450
     14 H32          1.4250     1.1700     1.3920 h1         1 ODS       0.015450
     15 HM1          3.6360    -0.1250     1.3380 h1         1 ODS       0.012700
     16 HM2          4.0570    -0.9940    -0.1590 h1         1 ODS       0.012700
     17 HM3          4.1100     0.7820    -0.1190 h1         1 ODS       0.012700
     18 H51          1.8850    -2.1600    -0.1040 h1         1 ODS       0.015450
     19 H52          1.3520    -1.2870     1.3370 h1         1 ODS       0.015450
     20 H61         -0.6220    -2.0540     0.2090 h1         1 ODS       0.032700
     21 H62         -0.0500    -1.4990    -1.3690 h1         1 ODS       0.032700
@<TRIPOS>BOND
     1     1     2 1   
     2     1     4 1   
     3     1     9 1   
     4     2     3 1   
     5     2    10 1   
     6     4     5 1   
     7     4    11 1   
     8     4    12 1   
     9     5     6 1   
    10     5    13 1   
    11     5    14 1   
    12     6     7 1   
    13     6     8 1   
    14     7    15 1   
    15     7    16 1   
    16     7    17 1   
    17     8     9 1   
    18     8    18 1   
    19     8    19 1   
    20     9    20 1   
    21     9    21 1   
@<TRIPOS>SUBSTRUCTURE
     1 ODS         1 TEMP              0 ****  ****    0 ROOT
