@<TRIPOS>MOLECULE
ODS
   21    21     1     0     0
SMALL
abcg2


@<TRIPOS>ATOM
      1 N1          -0.7230     0.0360    -0.0580 n          1 ODS      -0.453800
      2 C           -2.1360     0.0800    -0.1090 c          1 ODS       0.738000
      3 O           -2.6650     1.2110    -0.0920 o          1 ODS      -0.738500
      4 C2           0.0350     1.2250    -0.3670 c6         1 ODS       0.106500
      5 C3           1.4230     1.1540     0.2460 c6         1 ODS       0.153300
      6 N4           2.1160    -0.0450    -0.1770 n3         1 ODS      -0.716600
      7 CM           3.4630    -0.0980     0.3400 c3         1 ODS       0.159100
      8 C5           1.3520    -1.2190     0.1930 c6         1 ODS       0.153300
      9 C6          -0.0370    -1.1810    -0.4200 c6         1 ODS       0.106500
     10 OXT         -2.7310    -1.0180    -0.1390 o          1 ODS      -0.738500
     11 H21          0.1400     1.3680    -1.4540 h1         1 ODS       0.032700
     12 H22         -0.4820     2.0980     0.0240 h1         1 ODS       0.032700
     13 H31          1.9970     2.0280    -0.0720 h1         1 ODS       0.015450
     14 H32          1.3380     1.2050     1.3470 h1         1 ODS       0.015450
     15 HM1          3.5060    -0.1320     1.4410 h1         1 ODS       0.012700
     16 HM2          3.9750    -0.9850    -0.0380 h1         1 ODS       0.012700
     17 HM3          4.0260     0.7780     0.0130 h1         1 ODS       0.012700
     18 H51          1.8740    -2.1110    -0.1630 h1         1 ODS       0.015450
     19 H52          1.2620    -1.3130     1.2900 h1         1 ODS       0.015450
     20 H61         -0.6050    -2.0380    -0.0650 h1         1 ODS       0.032700
     21 H62          0.0580    -1.2850    -1.5130 h1         1 ODS       0.032700
@<TRIPOS>BOND
     1     1     2 1   
     2     1     4 1   
     3     1     9 1   
     4     2     3 1   
     5     2    10 1   
     6     4     5 1   
     7     4    11 1   
     8     4    12 1   
     9     5     6 1   
    10     5    13 1   
    11     5    14 1   
    12     6     7 1   
    13     6     8 1   
    14     7    15 1   
    15     7    16 1   
    16     7    17 1   
    17     8     9 1   
    18     8    18 1   
    19     8    19 1   
    20     9    20 1   
    21     9    21 1   
@<TRIPOS>SUBSTRUCTURE
     1 ODS         1 TEMP              0 ****  ****    0 ROOT
