@<TRIPOS>MOLECULE
ODT
   49    48     1     0     0
SMALL
abcg2


@<TRIPOS>ATOM
      1 O1          -8.9840     1.5270    -0.9570 o          1 ODT      -0.744000
      2 C1          -9.0910     0.8630     0.0930 c          1 ODT       0.717000
      3 O2         -10.1450     0.6650     0.7360 o          1 ODT      -0.744000
      4 C2          -7.8210     0.2160     0.6700 c3         1 ODT      -0.203400
      5 C3          -6.5350     0.4420    -0.1080 c3         1 ODT      -0.054400
      6 C4          -5.3340    -0.2420     0.5340 c3         1 ODT      -0.079400
      7 C5          -4.0280    -0.0200    -0.2190 c3         1 ODT      -0.075400
      8 C6          -2.8390    -0.7150     0.4310 c3         1 ODT      -0.075400
      9 C7          -1.5230    -0.4940    -0.3060 c3         1 ODT      -0.074400
     10 C8          -0.3440    -1.1880     0.3640 c3         1 ODT      -0.075400
     11 C9           0.9790    -0.9690    -0.3590 c3         1 ODT      -0.071400
     12 C10          2.1530    -1.6480     0.3500 c3         1 ODT      -0.047200
     13 C11          3.4420    -1.4860    -0.3850 c2         1 ODT      -0.189200
     14 C12          4.4870    -0.7750     0.0560 ce         1 ODT      -0.201000
     15 C13          5.7260    -0.6200    -0.6760 ce         1 ODT      -0.164000
     16 C14          6.7730     0.1030    -0.2400 cf         1 ODT      -0.186000
     17 C15          8.0080     0.2340    -0.9860 cf         1 ODT      -0.180000
     18 C16          9.0910     0.9380    -0.6240 c2         1 ODT      -0.209200
     19 C17          9.2840     1.7370     0.6240 c3         1 ODT      -0.044200
     20 C18         10.4030     1.1690     1.4960 c3         1 ODT      -0.085100
     21 H21         -8.0040    -0.8610     0.7710 hc         1 ODT       0.014200
     22 H22         -7.6930     0.5740     1.6990 hc         1 ODT       0.014200
     23 H31         -6.3380     1.5150    -0.1930 hc         1 ODT       0.037700
     24 H32         -6.6530     0.0770    -1.1330 hc         1 ODT       0.037700
     25 H41         -5.5250    -1.3190     0.6100 hc         1 ODT       0.023700
     26 H42         -5.2180     0.1130     1.5640 hc         1 ODT       0.023700
     27 H51         -3.8290     1.0550    -0.2880 hc         1 ODT       0.033700
     28 H52         -4.1390    -0.3730    -1.2510 hc         1 ODT       0.033700
     29 H61         -3.0380    -1.7910     0.4960 hc         1 ODT       0.031700
     30 H62         -2.7350    -0.3660     1.4640 hc         1 ODT       0.031700
     31 H71         -1.3230     0.5810    -0.3740 hc         1 ODT       0.036200
     32 H72         -1.6200    -0.8500    -1.3370 hc         1 ODT       0.036200
     33 H81         -0.5430    -2.2630     0.4310 hc         1 ODT       0.035200
     34 H82         -0.2530    -0.8320     1.3960 hc         1 ODT       0.035200
     35 H91          1.1820     0.1030    -0.4410 hc         1 ODT       0.040200
     36 H92          0.9010    -1.3450    -1.3850 hc         1 ODT       0.040200
     37 H101         1.9290    -2.7160     0.4540 hc         1 ODT       0.045200
     38 H102         2.2510    -1.2480     1.3630 hc         1 ODT       0.045200
     39 H11          3.5120    -1.9740    -1.3550 ha         1 ODT       0.166000
     40 H12          4.4200    -0.2790     1.0220 ha         1 ODT       0.170000
     41 H13          5.7980    -1.1300    -1.6340 ha         1 ODT       0.166000
     42 H14          6.6910     0.6090     0.7180 ha         1 ODT       0.172000
     43 H15          8.0460    -0.3010    -1.9300 ha         1 ODT       0.166000
     44 H16          9.9420     0.9220    -1.2990 ha         1 ODT       0.163000
     45 H171         8.3630     1.7990     1.2030 hc         1 ODT       0.044700
     46 H172         9.5430     2.7640     0.3460 hc         1 ODT       0.044700
     47 H181        10.5730     1.7970     2.3710 hc         1 ODT       0.032033
     48 H182        10.1560     0.1660     1.8460 hc         1 ODT       0.032033
     49 H183        11.3430     1.1070     0.9450 hc         1 ODT       0.032033
@<TRIPOS>BOND
     1     1     2 1   
     2     2     3 1   
     3     2     4 1   
     4     4     5 1   
     5     4    21 1   
     6     4    22 1   
     7     5     6 1   
     8     5    23 1   
     9     5    24 1   
    10     6     7 1   
    11     6    25 1   
    12     6    26 1   
    13     7     8 1   
    14     7    27 1   
    15     7    28 1   
    16     8     9 1   
    17     8    29 1   
    18     8    30 1   
    19     9    10 1   
    20     9    31 1   
    21     9    32 1   
    22    10    11 1   
    23    10    33 1   
    24    10    34 1   
    25    11    12 1   
    26    11    35 1   
    27    11    36 1   
    28    12    13 1   
    29    12    37 1   
    30    12    38 1   
    31    13    14 2   
    32    13    39 1   
    33    14    15 1   
    34    14    40 1   
    35    15    16 2   
    36    15    41 1   
    37    16    17 1   
    38    16    42 1   
    39    17    18 2   
    40    17    43 1   
    41    18    19 1   
    42    18    44 1   
    43    19    20 1   
    44    19    45 1   
    45    19    46 1   
    46    20    47 1   
    47    20    48 1   
    48    20    49 1   
@<TRIPOS>SUBSTRUCTURE
     1 ODT         1 TEMP              0 ****  ****    0 ROOT
