@<TRIPOS>MOLECULE
ODT
   49    48     1     0     0
SMALL
No Charge or Current Charge


@<TRIPOS>ATOM
      1 O1          -8.7820     2.6080     0.5470 o          1 ODT      -0.744000
      2 C1          -8.6530     1.4970     0.0560 c          1 ODT       0.717000
      3 O2          -9.2660     1.1190    -0.9300 o          1 ODT      -0.744000
      4 C2          -7.6170     0.5420     0.6790 c3         1 ODT      -0.203400
      5 C3          -6.2330     0.7480     0.0170 c3         1 ODT      -0.054400
      6 C4          -5.1390    -0.1790     0.5920 c3         1 ODT      -0.079400
      7 C5          -3.7590     0.0290    -0.0700 c3         1 ODT      -0.075400
      8 C6          -2.6660    -0.8980     0.5050 c3         1 ODT      -0.075400
      9 C7          -1.2870    -0.6900    -0.1570 c3         1 ODT      -0.074400
     10 C8          -0.1940    -1.6170     0.4180 c3         1 ODT      -0.075400
     11 C9           1.1860    -1.4100    -0.2450 c3         1 ODT      -0.071400
     12 C10          2.2800    -2.3340     0.3290 c3         1 ODT      -0.047200
     13 C11          3.6220    -2.1180    -0.3380 c2         1 ODT      -0.189200
     14 C12          4.4970    -1.1370    -0.0330 ce         1 ODT      -0.201000
     15 C13          5.7860    -0.9670    -0.7090 ce         1 ODT      -0.164000
     16 C14          6.6810     0.0140    -0.4190 cf         1 ODT      -0.186000
     17 C15          7.9640     0.1830    -1.0910 cf         1 ODT      -0.180000
     18 C16          8.8690     1.1540    -0.8200 c2         1 ODT      -0.209200
     19 C17          8.7530     2.2570     0.2150 c3         1 ODT      -0.044200
     20 C18          9.1000     1.7720     1.6350 c3         1 ODT      -0.085100
     21 H21         -7.8910    -0.5020     0.4830 hc         1 ODT       0.014200
     22 H22         -7.4780     0.7690     1.7430 hc         1 ODT       0.014200
     23 H31         -5.9240     1.7930     0.1460 hc         1 ODT       0.037700
     24 H32         -6.3210     0.5740    -1.0630 hc         1 ODT       0.037700
     25 H41         -5.4470    -1.2240     0.4610 hc         1 ODT       0.023700
     26 H42         -5.0500    -0.0040     1.6720 hc         1 ODT       0.023700
     27 H51         -3.4510     1.0740     0.0610 hc         1 ODT       0.033700
     28 H52         -3.8480    -0.1460    -1.1500 hc         1 ODT       0.033700
     29 H61         -2.9750    -1.9430     0.3740 hc         1 ODT       0.031700
     30 H62         -2.5770    -0.7220     1.5850 hc         1 ODT       0.031700
     31 H71         -0.9780     0.3550    -0.0270 hc         1 ODT       0.036200
     32 H72         -1.3760    -0.8650    -1.2370 hc         1 ODT       0.036200
     33 H81         -0.5030    -2.6620     0.2870 hc         1 ODT       0.035200
     34 H82         -0.1050    -1.4420     1.4980 hc         1 ODT       0.035200
     35 H91          1.4950    -0.3650    -0.1150 hc         1 ODT       0.040200
     36 H92          1.0980    -1.5850    -1.3240 hc         1 ODT       0.040200
     37 H101         1.9690    -3.3790     0.2050 hc         1 ODT       0.045200
     38 H102         2.3670    -2.1630     1.4090 hc         1 ODT       0.045200
     39 H11          3.8520    -2.8400    -1.1240 ha         1 ODT       0.166000
     40 H12          4.2550    -0.4190     0.7550 ha         1 ODT       0.170000
     41 H13          6.0310    -1.6830    -1.4970 ha         1 ODT       0.166000
     42 H14          6.4250     0.7240     0.3710 ha         1 ODT       0.172000
     43 H15          8.2020    -0.5410    -1.8740 ha         1 ODT       0.166000
     44 H16          9.7990     1.1770    -1.3920 ha         1 ODT       0.163000
     45 H171         7.7420     2.6820     0.2140 hc         1 ODT       0.044700
     46 H172         9.4280     3.0810    -0.0470 hc         1 ODT       0.044700
     47 H181         9.0150     2.5960     2.3530 hc         1 ODT       0.032033
     48 H182         8.4210     0.9710     1.9510 hc         1 ODT       0.032033
     49 H183        10.1270     1.3890     1.6720 hc         1 ODT       0.032033
@<TRIPOS>BOND
     1     1     2 1   
     2     2     3 1   
     3     2     4 1   
     4     4     5 1   
     5     4    21 1   
     6     4    22 1   
     7     5     6 1   
     8     5    23 1   
     9     5    24 1   
    10     6     7 1   
    11     6    25 1   
    12     6    26 1   
    13     7     8 1   
    14     7    27 1   
    15     7    28 1   
    16     8     9 1   
    17     8    29 1   
    18     8    30 1   
    19     9    10 1   
    20     9    31 1   
    21     9    32 1   
    22    10    11 1   
    23    10    33 1   
    24    10    34 1   
    25    11    12 1   
    26    11    35 1   
    27    11    36 1   
    28    12    13 1   
    29    12    37 1   
    30    12    38 1   
    31    13    14 2   
    32    13    39 1   
    33    14    15 1   
    34    14    40 1   
    35    15    16 2   
    36    15    41 1   
    37    16    17 1   
    38    16    42 1   
    39    17    18 2   
    40    17    43 1   
    41    18    19 1   
    42    18    44 1   
    43    19    20 1   
    44    19    45 1   
    45    19    46 1   
    46    20    47 1   
    47    20    48 1   
    48    20    49 1   
@<TRIPOS>SUBSTRUCTURE
     1 ODT         1 TEMP              0 ****  ****    0 ROOT
