@<TRIPOS>MOLECULE
ODV
   14    13     1     0     0
SMALL
bcc


@<TRIPOS>ATOM
      1 OAD          1.9580    -0.6850    -0.6800 o          1 ODV      -0.912167
      2 PAH          0.8360    -0.0680     0.1590 p5         1 ODV       1.120700
      3 OAE          0.7260    -0.6860     1.5780 o          1 ODV      -0.912167
      4 OAB          0.8220     1.4640     0.1410 o          1 ODV      -0.912167
      5 CAG         -0.7940    -0.6840    -0.5730 c3         1 ODV      -0.033100
      6 OAC         -1.2470    -1.6800     0.3140 oh         1 ODV      -0.684800
      7 CAF         -1.8540     0.3870    -0.7890 c3         1 ODV       0.182800
      8 NAA         -2.1830     1.1030     0.4400 n8         1 ODV      -0.878800
      9 HAG         -0.5970    -1.1420    -1.5530 h1         1 ODV       0.005700
     10 HAC         -0.7110    -1.4760     1.1150 ho         1 ODV       0.447000
     11 HAF         -1.4840     1.0440    -1.5910 h1         1 ODV      -0.030800
     12 HAH         -2.7720    -0.0660    -1.1790 h1         1 ODV      -0.030800
     13 HAI         -1.3770     1.6830     0.6550 hn         1 ODV       0.318800
     14 HAJ         -2.9480     1.7420     0.2520 hn         1 ODV       0.318800
@<TRIPOS>BOND
     1     1     2 1   
     2     2     3 1   
     3     2     4 1   
     4     2     5 1   
     5     5     6 1   
     6     5     7 1   
     7     5     9 1   
     8     6    10 1   
     9     7     8 1   
    10     7    11 1   
    11     7    12 1   
    12     8    13 1   
    13     8    14 1   
@<TRIPOS>SUBSTRUCTURE
     1 ODV         1 TEMP              0 ****  ****    0 ROOT
