@<TRIPOS>MOLECULE
ODV
   14    13     1     0     0
SMALL
No Charge or Current Charge


@<TRIPOS>ATOM
      1 OAD          2.0060    -1.2970    -0.8710 o          1 ODV      -0.912167
      2 PAH          1.1950    -0.0840    -0.5460 p5         1 ODV       1.278500
      3 OAE          1.6690     0.5030     0.7450 o          1 ODV      -0.912167
      4 OAB          1.3400     0.9190    -1.6420 o          1 ODV      -0.912167
      5 CAG         -0.6390    -0.5860    -0.3920 c3         1 ODV      -0.167700
      6 OAC         -1.0730    -1.5320     0.6280 oh         1 ODV      -0.747000
      7 CAF         -1.5320     0.6710    -0.2530 c3         1 ODV       0.182800
      8 NAA         -2.7890     0.3640     0.4700 n8         1 ODV      -0.989200
      9 HAG         -0.8690    -1.0270    -1.3710 h1         1 ODV       0.005700
     10 HAC         -1.9690    -1.1500     0.8420 ho         1 ODV       0.486000
     11 HAF         -1.0220     1.4760     0.2900 h1         1 ODV      -0.030800
     12 HAH         -1.7990     1.0350    -1.2530 h1         1 ODV      -0.030800
     13 HAI         -2.6490     0.5940     1.4610 hn         1 ODV       0.374000
     14 HAJ         -3.4960     1.0500     0.1820 hn         1 ODV       0.374000
@<TRIPOS>BOND
     1     1     2 1   
     2     2     3 1   
     3     2     4 1   
     4     2     5 1   
     5     5     6 1   
     6     5     7 1   
     7     5     9 1   
     8     6    10 1   
     9     7     8 1   
    10     7    11 1   
    11     7    12 1   
    12     8    13 1   
    13     8    14 1   
@<TRIPOS>SUBSTRUCTURE
     1 ODV         1 TEMP              0 ****  ****    0 ROOT
