@<TRIPOS>MOLECULE
ODX
   47    49     1     0     0
SMALL
No Charge or Current Charge


@<TRIPOS>ATOM
      1 N1           7.5430    -0.8160    21.0010 ns         1 ODX      -0.144000
      2 C4           6.5380     0.7750    19.3620 ca         1 ODX       0.320900
      3 C5           6.4400    -0.0660    20.5000 ca         1 ODX      -0.062000
      4 C6           8.9070    -0.7240    20.7590 c          1 ODX       0.608100
      5 C7           9.7530    -1.7340    21.5410 c3         1 ODX      -0.109100
      6 C8          10.2140    -1.1150    22.8550 ca         1 ODX      -0.033300
      7 C10         11.8910     0.0480    24.1830 ca         1 ODX       0.175000
      8 C13          7.6300     0.2780    25.9640 c5         1 ODX       0.235500
      9 C15          5.6350     1.0810    27.0320 c5         1 ODX      -0.074400
     10 C17          7.8840     1.7940    26.2680 c5         1 ODX       0.131300
     11 Cl          13.4890     0.7680    24.3210 cl         1 ODX      -0.220000
     12 C9          11.4890    -0.5330    22.9700 ca         1 ODX      -0.139000
     13 C11         11.0230     0.0630    25.2840 ca         1 ODX      -0.184000
     14 C12          9.7440    -0.4970    25.1740 ca         1 ODX       0.356000
     15 N2           8.8860    -0.4750    26.2740 nu         1 ODX      -0.967200
     16 O1           8.5730     2.4930    25.2240 oh         1 ODX      -0.654000
     17 C16          6.4160     2.2920    26.4140 c5         1 ODX      -0.117400
     18 C14          6.6830    -0.0660    27.1360 c5         1 ODX      -0.088400
     19 C18          9.3510    -1.1010    23.9670 ca         1 ODX      -0.173000
     20 O            9.4160     0.1190    20.0300 o          1 ODX      -0.567100
     21 C1           5.1900    -0.1670    21.1530 ca         1 ODX      -0.093300
     22 C            4.9950    -1.0430    22.3870 c3         1 ODX      -0.052800
     23 N            5.4960     1.4890    18.8700 nb         1 ODX      -0.645000
     24 C3           4.3080     1.3900    19.5070 ca         1 ODX       0.303900
     25 C2           4.1150     0.5810    20.6380 ca         1 ODX      -0.148000
     26 H1           7.2840    -1.5370    21.6620 hn         1 ODX       0.149000
     27 H2           7.4660     0.8740    18.8040 h4         1 ODX       0.054100
     28 H3           9.1510    -2.6210    21.7690 hc         1 ODX       0.071200
     29 H4          10.6210    -2.0210    20.9350 hc         1 ODX       0.071200
     30 H5           7.1760     0.0900    24.9790 h1         1 ODX       0.066700
     31 H6           5.2050     1.3230    28.0110 hc         1 ODX       0.049200
     32 H7           4.7980     0.7920    26.3840 hc         1 ODX       0.049200
     33 H8           8.4190     1.9140    27.2210 h1         1 ODX       0.041700
     34 H9          12.1700    -0.5280    22.1230 ha         1 ODX       0.133000
     35 H10         11.3410     0.5230    26.2150 ha         1 ODX       0.126000
     36 H11          9.3640    -0.2510    27.1470 hn         1 ODX       0.477000
     37 H12          8.6540     3.4280    25.5130 ho         1 ODX       0.451000
     38 H13          6.3550     3.1860    27.0460 hc         1 ODX       0.052200
     39 H14          5.9880     2.5630    25.4410 hc         1 ODX       0.052200
     40 H15          6.2290    -1.0580    27.0320 hc         1 ODX       0.052200
     41 H16          7.1890    -0.0380    28.1100 hc         1 ODX       0.052200
     42 H17          8.3690    -1.5600    23.8950 ha         1 ODX       0.118000
     43 H18          5.1920    -2.0970    22.1580 hc         1 ODX       0.045700
     44 H19          5.6680    -0.7400    23.1970 hc         1 ODX       0.045700
     45 H20          3.9700    -0.9780    22.7720 hc         1 ODX       0.045700
     46 H21          3.4860     1.9740    19.0950 h4         1 ODX       0.020100
     47 H22          3.1340     0.5420    21.1040 ha         1 ODX       0.118000
@<TRIPOS>BOND
     1     1     3 1   
     2     1     4 1   
     3     1    26 1   
     4     2     3 ar  
     5     2    23 ar  
     6     2    27 1   
     7     3    21 ar  
     8     4     5 1   
     9     4    20 2   
    10     5     6 1   
    11     5    28 1   
    12     5    29 1   
    13     6    12 ar  
    14     6    19 ar  
    15     7    11 1   
    16     7    12 ar  
    17     7    13 ar  
    18     8    10 1   
    19     8    15 1   
    20     8    18 1   
    21     8    30 1   
    22     9    17 1   
    23     9    18 1   
    24     9    31 1   
    25     9    32 1   
    26    10    16 1   
    27    10    17 1   
    28    10    33 1   
    29    12    34 1   
    30    13    14 ar  
    31    13    35 1   
    32    14    15 1   
    33    14    19 ar  
    34    15    36 1   
    35    16    37 1   
    36    17    38 1   
    37    17    39 1   
    38    18    40 1   
    39    18    41 1   
    40    19    42 1   
    41    21    22 1   
    42    21    25 ar  
    43    22    43 1   
    44    22    44 1   
    45    22    45 1   
    46    23    24 ar  
    47    24    25 ar  
    48    24    46 1   
    49    25    47 1   
@<TRIPOS>SUBSTRUCTURE
     1 ODX         1 TEMP              0 ****  ****    0 ROOT
