@<TRIPOS>MOLECULE
ODX
   47    49     1     0     0
SMALL
abcg2


@<TRIPOS>ATOM
      1 N1           7.6360    -0.7470    21.0840 ns         1 ODX      -0.144000
      2 C4           6.8030     1.2700    19.9500 ca         1 ODX       0.320900
      3 C5           6.6330     0.2040    20.8370 ca         1 ODX      -0.062000
      4 C6           8.9840    -0.6300    20.9070 c          1 ODX       0.608100
      5 C7           9.8000    -1.7240    21.5810 c3         1 ODX      -0.109100
      6 C8          10.3460    -1.1940    22.8930 ca         1 ODX      -0.033300
      7 C10         12.1620    -0.5030    24.2730 ca         1 ODX       0.175000
      8 C13          7.6210     0.2800    25.9660 c5         1 ODX       0.235500
      9 C15          5.5670     0.9740    27.1260 c5         1 ODX      -0.074400
     10 C17          7.0570     1.5400    25.2940 c5         1 ODX       0.131300
     11 CL          13.8930    -0.3220    24.5280 cl         1 ODX      -0.220000
     12 C9          11.7200    -1.0520    23.0740 ca         1 ODX      -0.139000
     13 C11         11.3030    -0.0850    25.2680 ca         1 ODX      -0.184000
     14 C12          9.9120    -0.2190    25.0800 ca         1 ODX       0.356000
     15 N2           9.0600     0.1870    26.0770 nu         1 ODX      -0.967200
     16 O1           7.3140     1.5310    23.8930 oh         1 ODX      -0.654000
     17 C16          5.5780     1.4900    25.6700 c5         1 ODX      -0.117400
     18 C14          6.9440     0.2960    27.3430 c5         1 ODX      -0.088400
     19 C18          9.4580    -0.7920    23.8840 ca         1 ODX      -0.173000
     20 O            9.5200     0.2980    20.3150 o          1 ODX      -0.567100
     21 C1           5.4110     0.0770    21.5210 ca         1 ODX      -0.093300
     22 C            5.1570    -1.0400    22.4880 c3         1 ODX      -0.052800
     23 N            5.8640     2.1950    19.7310 nb         1 ODX      -0.645000
     24 C3           4.7090     2.0820    20.3890 ca         1 ODX       0.303900
     25 C2           4.4470     1.0460    21.2740 ca         1 ODX      -0.148000
     26 H1           7.3390    -1.5670    21.5880 hn         1 ODX       0.149000
     27 H2           7.7310     1.3740    19.4100 h4         1 ODX       0.054100
     28 H3           9.1910    -2.6130    21.7520 hc         1 ODX       0.071200
     29 H4          10.6180    -1.9930    20.9140 hc         1 ODX       0.071200
     30 H5           7.2600    -0.5810    25.3990 h1         1 ODX       0.066700
     31 H6           5.4330     1.7950    27.8310 hc         1 ODX       0.049200
     32 H7           4.7440     0.2780    27.2880 hc         1 ODX       0.049200
     33 H8           7.5350     2.4160    25.7520 h1         1 ODX       0.041700
     34 H9          12.4210    -1.3510    22.3080 ha         1 ODX       0.133000
     35 H10         11.6870     0.3470    26.1830 ha         1 ODX       0.126000
     36 H11          9.4760     0.7330    26.8160 hn         1 ODX       0.477000
     37 H12          6.7910     2.2280    23.4780 ho         1 ODX       0.451000
     38 H13          5.0850     2.4560    25.5540 hc         1 ODX       0.052200
     39 H14          5.0810     0.7800    25.0050 hc         1 ODX       0.052200
     40 H15          6.8660    -0.7080    27.7580 hc         1 ODX       0.052200
     41 H16          7.5540     0.8850    28.0330 hc         1 ODX       0.052200
     42 H17          8.3980    -0.8780    23.7080 ha         1 ODX       0.118000
     43 H18          5.2210    -2.0170    22.0000 hc         1 ODX       0.045700
     44 H19          5.8900    -1.0260    23.2980 hc         1 ODX       0.045700
     45 H20          4.1650    -0.9480    22.9260 hc         1 ODX       0.045700
     46 H21          3.9620     2.8450    20.1990 h4         1 ODX       0.020100
     47 H22          3.4930     0.9970    21.7820 ha         1 ODX       0.118000
@<TRIPOS>BOND
     1     1     3 1   
     2     1     4 1   
     3     1    26 1   
     4     2     3 ar  
     5     2    23 ar  
     6     2    27 1   
     7     3    21 ar  
     8     4     5 1   
     9     4    20 2   
    10     5     6 1   
    11     5    28 1   
    12     5    29 1   
    13     6    12 ar  
    14     6    19 ar  
    15     7    11 1   
    16     7    12 ar  
    17     7    13 ar  
    18     8    10 1   
    19     8    15 1   
    20     8    18 1   
    21     8    30 1   
    22     9    17 1   
    23     9    18 1   
    24     9    31 1   
    25     9    32 1   
    26    10    16 1   
    27    10    17 1   
    28    10    33 1   
    29    12    34 1   
    30    13    14 ar  
    31    13    35 1   
    32    14    15 1   
    33    14    19 ar  
    34    15    36 1   
    35    16    37 1   
    36    17    38 1   
    37    17    39 1   
    38    18    40 1   
    39    18    41 1   
    40    19    42 1   
    41    21    22 1   
    42    21    25 ar  
    43    22    43 1   
    44    22    44 1   
    45    22    45 1   
    46    23    24 ar  
    47    24    25 ar  
    48    24    46 1   
    49    25    47 1   
@<TRIPOS>SUBSTRUCTURE
     1 ODX         1 TEMP              0 ****  ****    0 ROOT
