@<TRIPOS>MOLECULE
ODY
   62    66     1     0     0
SMALL
abcg2


@<TRIPOS>ATOM
      1 C4          -2.5210    -0.0810     0.8820 c6         1 ODY       0.277800
      2 C14         -1.0340    -0.3150     0.7590 ca         1 ODY      -0.163300
      3 C11         -3.7120    -4.4490    -0.4030 ca         1 ODY      -0.121000
      4 C7          -3.4380    -2.1620     0.2670 ca         1 ODY       0.045100
      5 C8          -3.7410    -1.7210    -1.0180 ca         1 ODY      -0.083800
      6 C9          -4.0390    -2.6690    -1.9980 ca         1 ODY      -0.108000
      7 C10         -4.0220    -4.0190    -1.6870 ca         1 ODY      -0.102000
      8 C12         -3.4130    -3.5190     0.5850 ca         1 ODY       0.127100
      9 C3          -3.1280     0.5170    -0.3610 ce         1 ODY      -0.104400
     10 C2          -3.7270    -0.2740    -1.2670 cf         1 ODY      -0.013400
     11 O6          -3.1960    -1.2820     1.2670 os         1 ODY      -0.354100
     12 O13         -3.1140    -3.9450     1.8290 oh         1 ODY      -0.533100
     13 C15         -0.4360    -0.6930    -0.4430 ca         1 ODY      -0.047000
     14 C16          0.9180    -0.9570    -0.5140 ca         1 ODY      -0.181000
     15 C17          1.7200    -0.8440     0.6250 ca         1 ODY       0.157100
     16 C18          1.1390    -0.4580     1.8310 ca         1 ODY      -0.181000
     17 C19         -0.2260    -0.2020     1.8820 ca         1 ODY      -0.047000
     18 O20          3.0250    -1.1170     0.4610 os         1 ODY      -0.327100
     19 C21          3.9010    -0.9870     1.5670 c3         1 ODY       0.167600
     20 C22          5.2990    -1.3300     1.1100 c3         1 ODY       0.166800
     21 N23          5.7750    -0.4250     0.0990 nq         1 ODY      -0.700600
     22 C24          7.1430    -0.6020    -0.3900 cy         1 ODY       0.152800
     23 C25          7.2820     0.9280    -0.4590 cy         1 ODY      -0.135700
     24 C26          6.0650     0.9600     0.4790 cy         1 ODY       0.152800
     25 C27          8.5760     1.5120     0.0260 c3         1 ODY       0.195600
     26 F28          8.4680     2.9020     0.0970 f          1 ODY      -0.269000
     27 C29         -2.9330     1.9720    -0.5180 ca         1 ODY      -0.005800
     28 C30         -2.2290     2.4800    -1.6110 ca         1 ODY      -0.133000
     29 C31         -2.0310     3.8470    -1.7280 ca         1 ODY      -0.070000
     30 C32         -2.5190     4.7230    -0.7700 ca         1 ODY      -0.203000
     31 C33         -3.2170     4.2210     0.3260 ca         1 ODY       0.139100
     32 C34         -3.4150     2.8490     0.4510 ca         1 ODY      -0.138000
     33 O35         -3.7210     5.0140     1.2920 oh         1 ODY      -0.534100
     34 H5          -2.6920     0.5940     1.7240 h1         1 ODY       0.088700
     35 H41         -3.6920    -5.5050    -0.1630 ha         1 ODY       0.130000
     36 H39         -4.2810    -2.3530    -3.0030 ha         1 ODY       0.116000
     37 H40         -4.2500    -4.7510    -2.4510 ha         1 ODY       0.116000
     38 H38         -5.3790    -0.1980    -2.6260 hc         1 ODY       0.049033
     39 H37         -4.4720     1.3110    -2.5230 hc         1 ODY       0.049033
     40 H36         -3.8160    -0.0610    -3.4070 hc         1 ODY       0.049033
     41 H42         -2.8790    -3.1920     2.3860 ho         1 ODY       0.481000
     42 H43         -1.0320    -0.7730    -1.3430 ha         1 ODY       0.115500
     43 H44          1.3690    -1.2480    -1.4540 ha         1 ODY       0.122500
     44 H45          1.7260    -0.3520     2.7330 ha         1 ODY       0.122500
     45 H46         -0.6600     0.0980     2.8290 ha         1 ODY       0.115500
     46 H48          3.8670     0.0350     1.9660 h1         1 ODY       0.035700
     47 H47          3.6100    -1.6640     2.3770 h1         1 ODY       0.035700
     48 H50          5.9440    -1.3330     2.0060 h1         1 ODY       0.043700
     49 H49          5.3150    -2.3490     0.7110 h1         1 ODY       0.043700
     50 H51          7.8180    -1.0390     0.3610 h1         1 ODY       0.050200
     51 H52          7.2440    -1.1710    -1.3160 h1         1 ODY       0.050200
     52 H53          7.0390     1.3090    -1.4530 hc         1 ODY       0.087700
     53 H55          5.2730     1.6820     0.2700 h1         1 ODY       0.050200
     54 H54          6.3660     1.0690     1.5320 h1         1 ODY       0.050200
     55 H57          8.8250     1.1430     1.0230 h1         1 ODY       0.043700
     56 H56          9.3980     1.2690    -0.6510 h1         1 ODY       0.043700
     57 H58         -1.8270     1.8090    -2.3580 ha         1 ODY       0.119000
     58 H59         -1.4830     4.2410    -2.5740 ha         1 ODY       0.114000
     59 H60         -2.3550     5.7900    -0.8740 ha         1 ODY       0.113000
     60 H61         -3.9670     2.4730     1.3050 ha         1 ODY       0.130000
     61 H62         -3.5330     5.9390     1.1010 ho         1 ODY       0.465000
     62 C1          -4.3800     0.2280    -2.5170 c3         1 ODY      -0.054900
@<TRIPOS>BOND
     1     1     2 1   
     2     1     9 1   
     3     1    11 1   
     4     1    34 1   
     5     2    13 ar  
     6     2    17 ar  
     7     3     7 ar  
     8     3     8 ar  
     9     3    35 1   
    10     4     5 ar  
    11     4     8 ar  
    12     4    11 1   
    13     5     6 ar  
    14     5    10 1   
    15     6     7 ar  
    16     6    36 1   
    17     7    37 1   
    18     8    12 1   
    19     9    10 2   
    20     9    27 1   
    21    10    62 1   
    22    12    41 1   
    23    13    14 ar  
    24    13    42 1   
    25    14    15 ar  
    26    14    43 1   
    27    15    16 ar  
    28    15    18 1   
    29    16    17 ar  
    30    16    44 1   
    31    17    45 1   
    32    18    19 1   
    33    19    20 1   
    34    19    46 1   
    35    19    47 1   
    36    20    21 1   
    37    20    48 1   
    38    20    49 1   
    39    21    22 1   
    40    21    24 1   
    41    22    23 1   
    42    22    50 1   
    43    22    51 1   
    44    23    24 1   
    45    23    25 1   
    46    23    52 1   
    47    24    53 1   
    48    24    54 1   
    49    25    26 1   
    50    25    55 1   
    51    25    56 1   
    52    27    28 ar  
    53    27    32 ar  
    54    28    29 ar  
    55    28    57 1   
    56    29    30 ar  
    57    29    58 1   
    58    30    31 ar  
    59    30    59 1   
    60    31    32 ar  
    61    31    33 1   
    62    32    60 1   
    63    33    61 1   
    64    38    62 1   
    65    39    62 1   
    66    40    62 1   
@<TRIPOS>SUBSTRUCTURE
     1 ODY         1 TEMP              0 ****  ****    0 ROOT
