@<TRIPOS>MOLECULE
ODY
   62    66     1     0     0
SMALL
No Charge or Current Charge


@<TRIPOS>ATOM
      1 C4          -2.5840    -0.2590     0.9090 c6         1 ODY       0.277800
      2 C14         -1.0670    -0.5010     0.9160 ca         1 ODY      -0.163300
      3 C11         -4.1730    -4.5150    -0.8350 ca         1 ODY      -0.121000
      4 C7          -3.6060    -2.3120     0.0400 ca         1 ODY       0.045100
      5 C8          -3.7850    -1.7390    -1.2380 ca         1 ODY      -0.083800
      6 C9          -4.1370    -2.5820    -2.3190 ca         1 ODY      -0.108000
      7 C10         -4.3290    -3.9610    -2.1160 ca         1 ODY      -0.102000
      8 C12         -3.8140    -3.6910     0.2410 ca         1 ODY       0.127100
      9 C3          -3.0450     0.4640    -0.3640 ce         1 ODY      -0.104400
     10 C2          -3.5870    -0.2790    -1.3710 cf         1 ODY      -0.013400
     11 O6          -3.2550    -1.5250     1.1220 os         1 ODY      -0.354100
     12 O13         -3.6560    -4.2260     1.4870 oh         1 ODY      -0.533100
     13 C15         -0.4290    -1.1540    -0.1590 ca         1 ODY      -0.047000
     14 C16          0.9610    -1.3570    -0.1400 ca         1 ODY      -0.181000
     15 C17          1.7310    -0.9130     0.9450 ca         1 ODY       0.157100
     16 C18          1.0980    -0.2590     2.0240 ca         1 ODY      -0.181000
     17 C19         -0.2930    -0.0550     2.0050 ca         1 ODY      -0.047000
     18 O20          3.0910    -1.1410     0.9070 os         1 ODY      -0.327100
     19 C21          3.9710    -0.7160     1.9680 c3         1 ODY       0.167600
     20 C22          5.4270    -1.1150     1.6110 c3         1 ODY       0.166800
     21 N23          5.9690    -0.4160     0.4300 nq         1 ODY      -0.700600
     22 C24          7.3810    -0.6140    -0.0050 cy         1 ODY       0.152800
     23 C25          7.1670     0.7330    -0.7710 cy         1 ODY      -0.135700
     24 C26          6.2000     1.0580     0.4160 cy         1 ODY       0.152800
     25 C27          8.3790     1.6410    -1.0000 c3         1 ODY       0.195600
     26 F28          7.9320     2.8350    -1.4610 f          1 ODY      -0.269000
     27 C29         -2.8040     1.9320    -0.3790 ca         1 ODY      -0.005800
     28 C30         -1.8800     2.4840    -1.2860 ca         1 ODY      -0.133000
     29 C31         -1.6410     3.8690    -1.3010 ca         1 ODY      -0.070000
     30 C32         -2.3260     4.7080    -0.4050 ca         1 ODY      -0.203000
     31 C33         -3.2480     4.1610     0.5010 ca         1 ODY       0.139100
     32 C34         -3.4850     2.7780     0.5150 ca         1 ODY      -0.138000
     33 O35         -3.9140     4.9710     1.3700 oh         1 ODY      -0.534100
     34 H5          -2.8280     0.3760     1.7720 h1         1 ODY       0.088700
     35 H41         -4.3260    -5.5800    -0.6790 ha         1 ODY       0.130000
     36 H39         -4.2610    -2.1870    -3.3240 ha         1 ODY       0.116000
     37 H40         -4.6000    -4.5990    -2.9540 ha         1 ODY       0.116000
     38 H38         -5.0900    -0.0380    -2.9340 hc         1 ODY       0.049033
     39 H37         -4.2260     1.4410    -2.5670 hc         1 ODY       0.049033
     40 H36         -3.4180     0.1730    -3.4920 hc         1 ODY       0.049033
     41 H42         -3.4010    -3.4830     2.0780 ho         1 ODY       0.481000
     42 H43         -1.0050    -1.5050    -1.0120 ha         1 ODY       0.115500
     43 H44          1.4450    -1.8610    -0.9720 ha         1 ODY       0.122500
     44 H45          1.6640     0.0980     2.8790 ha         1 ODY       0.122500
     45 H46         -0.7680     0.4530     2.8430 ha         1 ODY       0.115500
     46 H48          3.9150     0.3710     2.1100 h1         1 ODY       0.035700
     47 H47          3.6930    -1.2030     2.9110 h1         1 ODY       0.035700
     48 H50          6.0700    -0.8980     2.4740 h1         1 ODY       0.043700
     49 H49          5.4650    -2.1970     1.4320 h1         1 ODY       0.043700
     50 H51          8.1280    -0.5580     0.7980 h1         1 ODY       0.050200
     51 H52          7.5730    -1.4850    -0.6430 h1         1 ODY       0.050200
     52 H53          6.6490     0.6060    -1.7290 hc         1 ODY       0.087700
     53 H55          5.3360     1.6800     0.1540 h1         1 ODY       0.050200
     54 H54          6.7040     1.4600     1.3060 h1         1 ODY       0.050200
     55 H57          8.9200     1.7960    -0.0570 h1         1 ODY       0.043700
     56 H56          9.0480     1.1920    -1.7450 h1         1 ODY       0.043700
     57 H58         -1.3450     1.8370    -1.9760 ha         1 ODY       0.119000
     58 H59         -0.9250     4.2890    -2.0040 ha         1 ODY       0.114000
     59 H60         -2.1360     5.7790    -0.4220 ha         1 ODY       0.113000
     60 H61         -4.2040     2.3630     1.2170 ha         1 ODY       0.130000
     61 H62         -3.6240     5.8950     1.2150 ho         1 ODY       0.465000
     62 C1          -4.1050     0.3560    -2.6580 c3         1 ODY      -0.054900
@<TRIPOS>BOND
     1     1     2 1   
     2     1     9 1   
     3     1    11 1   
     4     1    34 1   
     5     2    13 ar  
     6     2    17 ar  
     7     3     7 ar  
     8     3     8 ar  
     9     3    35 1   
    10     4     5 ar  
    11     4     8 ar  
    12     4    11 1   
    13     5     6 ar  
    14     5    10 1   
    15     6     7 ar  
    16     6    36 1   
    17     7    37 1   
    18     8    12 1   
    19     9    10 2   
    20     9    27 1   
    21    10    62 1   
    22    12    41 1   
    23    13    14 ar  
    24    13    42 1   
    25    14    15 ar  
    26    14    43 1   
    27    15    16 ar  
    28    15    18 1   
    29    16    17 ar  
    30    16    44 1   
    31    17    45 1   
    32    18    19 1   
    33    19    20 1   
    34    19    46 1   
    35    19    47 1   
    36    20    21 1   
    37    20    48 1   
    38    20    49 1   
    39    21    22 1   
    40    21    24 1   
    41    22    23 1   
    42    22    50 1   
    43    22    51 1   
    44    23    24 1   
    45    23    25 1   
    46    23    52 1   
    47    24    53 1   
    48    24    54 1   
    49    25    26 1   
    50    25    55 1   
    51    25    56 1   
    52    27    28 ar  
    53    27    32 ar  
    54    28    29 ar  
    55    28    57 1   
    56    29    30 ar  
    57    29    58 1   
    58    30    31 ar  
    59    30    59 1   
    60    31    32 ar  
    61    31    33 1   
    62    32    60 1   
    63    33    61 1   
    64    38    62 1   
    65    39    62 1   
    66    40    62 1   
@<TRIPOS>SUBSTRUCTURE
     1 ODY         1 TEMP              0 ****  ****    0 ROOT
