@<TRIPOS>MOLECULE
ODZ
   36    36     1     0     0
SMALL
bcc


@<TRIPOS>ATOM
      1 C1          -6.2080     2.1020    17.4420 c2         1 ODZ       0.063900
      2 O1         -12.6630     2.3710    14.4820 oh         1 ODZ      -0.492100
      3 C2          -5.6890     3.4510    17.0410 c3         1 ODZ      -0.084200
      4 C3          -5.8580     4.5350    18.1240 c3         1 ODZ       0.011400
      5 C5          -9.5620     5.3630    18.1480 c3         1 ODZ      -0.098100
      6 C6         -10.4140     4.5660    17.1970 ca         1 ODZ      -0.127300
      7 C7         -10.9230     5.1390    16.0340 ca         1 ODZ      -0.072500
      8 C8         -11.6740     4.3990    15.1350 ca         1 ODZ      -0.194500
      9 C9         -11.9290     3.0520    15.3850 ca         1 ODZ       0.146100
     10 C10        -11.4280     2.4670    16.5440 ca         1 ODZ      -0.194500
     11 C12         -5.3140     5.8710    17.6340 c          1 ODZ       0.595900
     12 C13         -5.0700     4.2370    19.4050 c3         1 ODZ      -0.109100
     13 O           -5.4040     1.3320    18.2190 oh         1 ODZ      -0.516100
     14 C           -7.4150     1.6570    17.0970 c2         1 ODZ      -0.276000
     15 N           -7.2450     4.7240    18.4960 ns         1 ODZ      -0.566900
     16 O2          -7.7650     5.8840    16.6470 o          1 ODZ      -0.601100
     17 C11        -10.6790     3.2220    17.4340 ca         1 ODZ      -0.072500
     18 H1         -12.7720     1.4550    14.7620 ho         1 ODZ       0.426000
     19 H2          -4.6310     3.3830    16.7720 hc         1 ODZ       0.080200
     20 H3          -6.2130     3.7760    16.1430 hc         1 ODZ       0.080200
     21 H4          -9.8900     6.4040    18.1710 hc         1 ODZ       0.065700
     22 H5          -9.6610     4.9760    19.1640 hc         1 ODZ       0.065700
     23 H6         -10.7360     6.1850    15.8250 ha         1 ODZ       0.135000
     24 H7         -12.0670     4.8640    14.2390 ha         1 ODZ       0.141000
     25 H8         -11.6230     1.4210    16.7570 ha         1 ODZ       0.141000
     26 H9          -5.6600     6.7330    18.2330 h4         1 ODZ      -0.000800
     27 H10         -5.1220     5.0800    20.0950 hc         1 ODZ       0.051700
     28 H11         -5.4740     3.3660    19.9220 hc         1 ODZ       0.051700
     29 H12         -4.0210     4.0460    19.1830 hc         1 ODZ       0.051700
     30 H13         -4.5040     1.6730    18.2200 ho         1 ODZ       0.420000
     31 H14         -7.7760     0.6840    17.4040 ha         1 ODZ       0.130000
     32 H15         -8.0740     2.2710    16.5020 ha         1 ODZ       0.130000
     33 H16         -7.5870     4.2470    19.3150 hn         1 ODZ       0.322500
     34 H17        -10.2950     2.7470    18.3290 ha         1 ODZ       0.135000
     35 C4          -8.1180     5.3520    17.6920 c          1 ODZ       0.663100
     36 O3          -4.4930     5.9920    16.7650 o          1 ODZ      -0.502100
@<TRIPOS>BOND
     1     1     3 1   
     2     1    13 1   
     3     1    14 2   
     4     2     9 1   
     5     2    18 1   
     6     3     4 1   
     7     3    19 1   
     8     3    20 1   
     9     4    11 1   
    10     4    12 1   
    11     4    15 1   
    12     5     6 1   
    13     5    21 1   
    14     5    22 1   
    15     5    35 1   
    16     6     7 ar  
    17     6    17 ar  
    18     7     8 ar  
    19     7    23 1   
    20     8     9 ar  
    21     8    24 1   
    22     9    10 ar  
    23    10    17 ar  
    24    10    25 1   
    25    11    26 1   
    26    11    36 2   
    27    12    27 1   
    28    12    28 1   
    29    12    29 1   
    30    13    30 1   
    31    14    31 1   
    32    14    32 1   
    33    15    33 1   
    34    15    35 1   
    35    16    35 2   
    36    17    34 1   
@<TRIPOS>SUBSTRUCTURE
     1 ODZ         1 TEMP              0 ****  ****    0 ROOT
