@<TRIPOS>MOLECULE
ODZ
   36    36     1     0     0
SMALL
No Charge or Current Charge


@<TRIPOS>ATOM
      1 C1          -6.4290     2.3160    17.0270 c2         1 ODZ       0.063900
      2 O1         -12.5200     1.8010    14.9600 oh         1 ODZ      -0.531100
      3 C2          -5.6170     3.6040    16.9890 c3         1 ODZ      -0.084200
      4 C3          -5.8080     4.5570    18.2180 c3         1 ODZ       0.011400
      5 C5          -9.5390     5.6240    17.9710 c3         1 ODZ      -0.098100
      6 C6         -10.3470     4.6030    17.1740 ca         1 ODZ      -0.127300
      7 C7         -10.7880     4.9100    15.8720 ca         1 ODZ      -0.054500
      8 C8         -11.5190     3.9640    15.1320 ca         1 ODZ      -0.176500
      9 C9         -11.8110     2.7100    15.6860 ca         1 ODZ       0.146100
     10 C10        -11.3740     2.3970    16.9830 ca         1 ODZ      -0.176500
     11 C12         -5.0310     5.9040    18.0160 c          1 ODZ       0.595900
     12 C13         -5.2850     3.9040    19.5230 c3         1 ODZ      -0.109100
     13 O           -5.8400     1.2790    17.6380 oh         1 ODZ      -0.555100
     14 C           -7.6240     2.1580    16.4550 c2         1 ODZ      -0.376000
     15 N           -7.2460     4.8570    18.4220 ns         1 ODZ      -0.499900
     16 O2          -7.6350     6.1340    16.5660 o          1 ODZ      -0.601100
     17 C11        -10.6430     3.3400    17.7260 ca         1 ODZ      -0.054500
     18 H1         -12.6300     0.9900    15.5010 ho         1 ODZ       0.465000
     19 H2          -4.5500     3.3790    16.8620 hc         1 ODZ       0.080200
     20 H3          -5.8920     4.1560    16.0810 hc         1 ODZ       0.080200
     21 H4          -9.9260     6.6300    17.7740 hc         1 ODZ       0.065700
     22 H5          -9.6360     5.4010    19.0400 hc         1 ODZ       0.065700
     23 H6         -10.5610     5.8790    15.4320 ha         1 ODZ       0.117000
     24 H7         -11.8560     4.2060    14.1270 ha         1 ODZ       0.123000
     25 H8         -11.5940     1.4260    17.4200 ha         1 ODZ       0.123000
     26 H9          -5.2030     6.6660    18.8080 h4         1 ODZ      -0.000800
     27 H10         -5.3760     4.5960    20.3690 hc         1 ODZ       0.051700
     28 H11         -5.8530     3.0000    19.7750 hc         1 ODZ       0.051700
     29 H12         -4.2270     3.6290    19.4270 hc         1 ODZ       0.051700
     30 H13         -4.9700     1.5820    17.9740 ho         1 ODZ       0.459000
     31 H14         -8.1540     1.2080    16.4940 ha         1 ODZ       0.180000
     32 H15         -8.1190     2.9750    15.9300 ha         1 ODZ       0.180000
     33 H16         -7.7100     4.4290    19.2150 hn         1 ODZ       0.322500
     34 H17        -10.3040     3.0860    18.7280 ha         1 ODZ       0.117000
     35 C4          -8.0590     5.5790    17.5690 c          1 ODZ       0.596100
     36 O3          -4.2800     6.1450    17.0740 o          1 ODZ      -0.502100
@<TRIPOS>BOND
     1     1     3 1   
     2     1    13 1   
     3     1    14 2   
     4     2     9 1   
     5     2    18 1   
     6     3     4 1   
     7     3    19 1   
     8     3    20 1   
     9     4    11 1   
    10     4    12 1   
    11     4    15 1   
    12     5     6 1   
    13     5    21 1   
    14     5    22 1   
    15     5    35 1   
    16     6     7 ar  
    17     6    17 ar  
    18     7     8 ar  
    19     7    23 1   
    20     8     9 ar  
    21     8    24 1   
    22     9    10 ar  
    23    10    17 ar  
    24    10    25 1   
    25    11    26 1   
    26    11    36 2   
    27    12    27 1   
    28    12    28 1   
    29    12    29 1   
    30    13    30 1   
    31    14    31 1   
    32    14    32 1   
    33    15    33 1   
    34    15    35 1   
    35    16    35 2   
    36    17    34 1   
@<TRIPOS>SUBSTRUCTURE
     1 ODZ         1 TEMP              0 ****  ****    0 ROOT
