@<TRIPOS>MOLECULE
OE0
   47    49     1     0     0
SMALL
No Charge or Current Charge


@<TRIPOS>ATOM
      1 C1          12.3670   -38.6600    27.2070 ca         1 OE0       0.112100
      2 C3          14.2660   -37.6180    28.3390 ca         1 OE0      -0.073300
      3 C4          15.1700   -37.4930    29.5590 c3         1 OE0       0.017200
      4 C5          16.3800   -38.4130    29.4560 ca         1 OE0      -0.068300
      5 C6          16.3100   -39.7360    29.9320 ca         1 OE0      -0.108500
      6 O5          21.3350   -42.6780    26.0450 o          1 OE0      -0.542500
      7 S           21.0950   -42.7300    27.4890 sy         1 OE0       1.144600
      8 O4          20.6050   -43.9310    28.1660 o          1 OE0      -0.542500
      9 C10         22.5320   -42.0650    28.3470 ca         1 OE0      -0.276500
     10 C15         23.2700   -41.0140    27.7650 ca         1 OE0       0.001000
     11 C14         24.3880   -40.4830    28.4340 ca         1 OE0      -0.188000
     12 C13         24.7710   -40.9980    29.6840 ca         1 OE0       0.099100
     13 O3          25.8590   -40.4800    30.3350 oh         1 OE0      -0.550100
     14 C12         24.0340   -42.0490    30.2690 ca         1 OE0       0.099100
     15 O2          24.4130   -42.5430    31.4860 oh         1 OE0      -0.529100
     16 C11         22.9170   -42.5820    29.6040 ca         1 OE0      -0.029000
     17 N           19.9530   -41.5540    27.7800 n7         1 OE0      -0.879300
     18 C8          18.6240   -40.1240    29.2560 ca         1 OE0      -0.099300
     19 C7          17.4250   -40.5870    29.8330 ca         1 OE0      -0.089500
     20 C16         18.6920   -38.8020    28.7770 ca         1 OE0      -0.089500
     21 C17         17.5770   -37.9510    28.8760 ca         1 OE0      -0.108500
     22 C2          13.2000   -38.5380    28.3350 ca         1 OE0      -0.167000
     23 O1          11.3360   -39.5630    27.2320 oh         1 OE0      -0.514100
     24 C18         14.4970   -36.8200    27.2030 ca         1 OE0      -0.104000
     25 C19         13.6700   -36.9350    26.0720 ca         1 OE0      -0.174000
     26 C           12.6040   -37.8510    26.0670 ca         1 OE0       0.110100
     27 O           11.8100   -37.9470    24.9540 oh         1 OE0      -0.513100
     28 H3          15.4980   -36.4530    29.6770 hc         1 OE0       0.055200
     29 H4          14.6040   -37.7210    30.4710 hc         1 OE0       0.055200
     30 H5          15.3900   -40.1070    30.3770 ha         1 OE0       0.114000
     31 H14         22.9770   -40.6040    26.7990 ha         1 OE0       0.135000
     32 H13         24.9480   -39.6720    27.9750 ha         1 OE0       0.119000
     33 H12         26.2450   -39.7650    29.7820 ho         1 OE0       0.483000
     34 H11         25.2070   -42.0280    31.7570 ho         1 OE0       0.483000
     35 H10         22.3580   -43.3920    30.0690 ha         1 OE0       0.159000
     36 H9          19.1020   -42.0600    27.5500 hn         1 OE0       0.488000
     37 H7          20.7290   -40.4690    29.4360 h1         1 OE0       0.057700
     38 H8          19.7280   -41.8620    29.8720 h1         1 OE0       0.057700
     39 H6          17.3540   -41.6070    30.2050 ha         1 OE0       0.116000
     40 H15         19.6110   -38.4350    28.3240 ha         1 OE0       0.116000
     41 H16         17.6440   -36.9330    28.4990 ha         1 OE0       0.114000
     42 H2          13.0230   -39.1580    29.2110 ha         1 OE0       0.116000
     43 H1          11.3400   -40.0180    28.1000 ho         1 OE0       0.459000
     44 H17         15.3220   -36.1100    27.1950 ha         1 OE0       0.113000
     45 H18         13.8640   -36.3100    25.2030 ha         1 OE0       0.115000
     46 H           12.1360   -37.3110    24.2830 ho         1 OE0       0.459000
     47 C9          19.8350   -41.0400    29.1500 c3         1 OE0       0.249100
@<TRIPOS>BOND
     1     1    22 ar  
     2     1    23 1   
     3     1    26 ar  
     4     2     3 1   
     5     2    22 ar  
     6     2    24 ar  
     7     3     4 1   
     8     3    28 1   
     9     3    29 1   
    10     4     5 ar  
    11     4    21 ar  
    12     5    19 ar  
    13     5    30 1   
    14     6     7 2   
    15     7     8 2   
    16     7     9 1   
    17     7    17 1   
    18     9    10 ar  
    19     9    16 ar  
    20    10    11 ar  
    21    10    31 1   
    22    11    12 ar  
    23    11    32 1   
    24    12    13 1   
    25    12    14 ar  
    26    13    33 1   
    27    14    15 1   
    28    14    16 ar  
    29    15    34 1   
    30    16    35 1   
    31    17    36 1   
    32    17    47 1   
    33    18    19 ar  
    34    18    20 ar  
    35    18    47 1   
    36    19    39 1   
    37    20    21 ar  
    38    20    40 1   
    39    21    41 1   
    40    22    42 1   
    41    23    43 1   
    42    24    25 ar  
    43    24    44 1   
    44    25    26 ar  
    45    25    45 1   
    46    26    27 1   
    47    27    46 1   
    48    37    47 1   
    49    38    47 1   
@<TRIPOS>SUBSTRUCTURE
     1 OE0         1 TEMP              0 ****  ****    0 ROOT
