@<TRIPOS>MOLECULE
OE0
   47    49     1     0     0
SMALL
abcg2


@<TRIPOS>ATOM
      1 C1          13.3290   -38.4190    26.4080 ca         1 OE0       0.112100
      2 C3          14.5940   -37.5680    28.2960 ca         1 OE0      -0.073300
      3 C4          15.1430   -37.7750    29.6850 c3         1 OE0       0.017200
      4 C5          16.2000   -38.8480    29.7430 ca         1 OE0      -0.068300
      5 C6          15.9870   -40.0310    30.4390 ca         1 OE0      -0.108500
      6 O5          20.9770   -43.8210    27.1630 o          1 OE0      -0.542500
      7 S           20.9970   -43.2700    28.5090 sy         1 OE0       1.144600
      8 O4          21.1550   -44.1820    29.6360 o          1 OE0      -0.542500
      9 C10         22.2610   -42.0450    28.6280 ca         1 OE0      -0.276500
     10 C15         22.3170   -41.0440    27.6710 ca         1 OE0       0.001000
     11 C14         23.3490   -40.1230    27.7280 ca         1 OE0      -0.188000
     12 C13         24.3190   -40.2080    28.7180 ca         1 OE0       0.099100
     13 O3          25.3550   -39.3610    28.8350 oh         1 OE0      -0.550100
     14 C12         24.2530   -41.2270    29.6810 ca         1 OE0       0.099100
     15 O2          25.1720   -41.3370    30.6580 oh         1 OE0      -0.529100
     16 C11         23.2200   -42.1460    29.6290 ca         1 OE0      -0.029000
     17 N           19.6240   -42.3570    28.6400 n7         1 OE0      -0.879300
     18 C8          18.1950   -40.8260    29.8700 ca         1 OE0      -0.099300
     19 C7          16.9730   -41.0110    30.4990 ca         1 OE0      -0.089500
     20 C16         18.4070   -39.6450    29.1570 ca         1 OE0      -0.089500
     21 C17         17.4240   -38.6740    29.0940 ca         1 OE0      -0.108500
     22 C2          13.8420   -38.5740    27.6850 ca         1 OE0      -0.167000
     23 O1          12.5930   -39.3600    25.7800 oh         1 OE0      -0.514100
     24 C18         14.8240   -36.3970    27.5940 ca         1 OE0      -0.104000
     25 C19         14.3150   -36.2300    26.3080 ca         1 OE0      -0.174000
     26 C           13.5710   -37.2280    25.7040 ca         1 OE0       0.110100
     27 O           13.0490   -37.1330    24.4620 oh         1 OE0      -0.513100
     28 H3          15.5630   -36.8330    30.0450 hc         1 OE0       0.055200
     29 H4          14.3330   -38.0360    30.3700 hc         1 OE0       0.055200
     30 H5          15.0430   -40.1920    30.9440 ha         1 OE0       0.114000
     31 H14         21.5690   -40.9630    26.8930 ha         1 OE0       0.135000
     32 H13         23.4050   -39.3290    26.9920 ha         1 OE0       0.119000
     33 H12         25.3440   -38.6890    28.1420 ho         1 OE0       0.483000
     34 H11         25.8360   -40.6410    30.5810 ho         1 OE0       0.483000
     35 H10         23.1730   -42.9320    30.3720 ha         1 OE0       0.159000
     36 H9          18.8510   -42.7970    28.1490 hn         1 OE0       0.488000
     37 H7          20.1690   -41.4220    30.4130 h1         1 OE0       0.057700
     38 H8          18.9540   -42.6760    30.6340 h1         1 OE0       0.057700
     39 H6          16.7840   -41.9250    31.0500 ha         1 OE0       0.116000
     40 H15         19.3550   -39.4840    28.6560 ha         1 OE0       0.116000
     41 H16         17.6110   -37.7610    28.5400 ha         1 OE0       0.114000
     42 H2          13.6500   -39.5000    28.2190 ha         1 OE0       0.116000
     43 H1          12.4840   -40.1290    26.3510 ho         1 OE0       0.459000
     44 H17         15.4000   -35.5980    28.0450 ha         1 OE0       0.113000
     45 H18         14.5040   -35.3060    25.7730 ha         1 OE0       0.115000
     46 H           13.2700   -36.2780    24.0760 ho         1 OE0       0.459000
     47 C9          19.2730   -41.8670    29.9720 c3         1 OE0       0.249100
@<TRIPOS>BOND
     1     1    22 ar  
     2     1    23 1   
     3     1    26 ar  
     4     2     3 1   
     5     2    22 ar  
     6     2    24 ar  
     7     3     4 1   
     8     3    28 1   
     9     3    29 1   
    10     4     5 ar  
    11     4    21 ar  
    12     5    19 ar  
    13     5    30 1   
    14     6     7 2   
    15     7     8 2   
    16     7     9 1   
    17     7    17 1   
    18     9    10 ar  
    19     9    16 ar  
    20    10    11 ar  
    21    10    31 1   
    22    11    12 ar  
    23    11    32 1   
    24    12    13 1   
    25    12    14 ar  
    26    13    33 1   
    27    14    15 1   
    28    14    16 ar  
    29    15    34 1   
    30    16    35 1   
    31    17    36 1   
    32    17    47 1   
    33    18    19 ar  
    34    18    20 ar  
    35    18    47 1   
    36    19    39 1   
    37    20    21 ar  
    38    20    40 1   
    39    21    41 1   
    40    22    42 1   
    41    23    43 1   
    42    24    25 ar  
    43    24    44 1   
    44    25    26 ar  
    45    25    45 1   
    46    26    27 1   
    47    27    46 1   
    48    37    47 1   
    49    38    47 1   
@<TRIPOS>SUBSTRUCTURE
     1 OE0         1 TEMP              0 ****  ****    0 ROOT
