@<TRIPOS>MOLECULE
OE1
   48    50     1     0     0
SMALL
bcc


@<TRIPOS>ATOM
      1 C1          -2.1270     3.8960     0.9380 c3         1 OE1      -0.087600
      2 C2          -2.2290     2.3800     0.8530 c3         1 OE1      -0.098900
      3 C3          -3.3410     1.9570    -0.0990 c3         1 OE1       0.223300
      4 N4          -3.5760     0.5180    -0.1710 n3         1 OE1      -0.780500
      5 C5          -4.2600    -0.1150     0.9580 c3         1 OE1       0.223300
      6 C6          -5.7440    -0.3310     0.7030 c3         1 OE1      -0.098900
      7 C7          -6.4390    -0.9070     1.9280 c3         1 OE1      -0.087600
      8 S8          -2.7770    -0.4080    -1.2550 sy         1 OE1       1.328200
      9 O9          -3.4820    -1.6800    -1.3280 o          1 OE1      -0.612300
     10 O10         -2.6020     0.3830    -2.4640 o          1 OE1      -0.612300
     11 C11         -1.1580    -0.7500    -0.6150 ca         1 OE1      -0.319500
     12 C12         -1.0100    -1.7830     0.3270 ca         1 OE1      -0.032000
     13 C13          0.2240    -2.0640     0.8780 ca         1 OE1      -0.151000
     14 C14          1.2960    -1.2900     0.4510 ca         1 OE1      -0.038200
     15 C15          1.1560    -0.2610    -0.4970 ca         1 OE1       0.044400
     16 C16         -0.0910     0.0180    -1.0480 ca         1 OE1       0.044000
     17 N17          2.3700     0.3220    -0.7400 nc         1 OE1      -0.562100
     18 C18          3.2200    -0.3150     0.0220 cd         1 OE1       0.473400
     19 N19          2.6220    -1.2950     0.7590 na         1 OE1      -0.256300
     20 C21          4.6510    -0.0260     0.0890 ca         1 OE1      -0.118900
     21 C22          5.1380     1.1340    -0.5160 ca         1 OE1      -0.099500
     22 C23          6.4890     1.4290    -0.4740 ca         1 OE1      -0.130500
     23 C24          7.3740     0.5730     0.1710 ca         1 OE1      -0.111000
     24 C25          6.8970    -0.5850     0.7710 ca         1 OE1      -0.130500
     25 C26          5.5440    -0.8840     0.7310 ca         1 OE1      -0.099500
     26 H11C        -1.3440     4.1980     1.6330 hc         1 OE1       0.035200
     27 H12C        -1.8950     4.3340    -0.0340 hc         1 OE1       0.035200
     28 H13C        -3.0640     4.3380     1.2820 hc         1 OE1       0.035200
     29 H21C        -1.2770     1.9630     0.5210 hc         1 OE1       0.050450
     30 H22C        -2.4170     1.9700     1.8490 hc         1 OE1       0.050450
     31 H31C        -4.2860     2.4090     0.2140 h1         1 OE1       0.055200
     32 H32C        -3.1470     2.3390    -1.1010 h1         1 OE1       0.055200
     33 H51C        -3.7830    -1.0610     1.2230 h1         1 OE1       0.055200
     34 H52C        -4.1230     0.5330     1.8260 h1         1 OE1       0.055200
     35 H61C        -6.2040     0.6220     0.4260 hc         1 OE1       0.050450
     36 H62C        -5.8670    -1.0010    -0.1490 hc         1 OE1       0.050450
     37 H71C        -7.4940    -1.0950     1.7300 hc         1 OE1       0.035200
     38 H72C        -5.9860    -1.8530     2.2310 hc         1 OE1       0.035200
     39 H73C        -6.3810    -0.2250     2.7780 hc         1 OE1       0.035200
     40 H12         -1.8610    -2.3840     0.6170 ha         1 OE1       0.149000
     41 H16         -0.2050     0.8020    -1.7840 ha         1 OE1       0.172000
     42 H13          0.3410    -2.8610     1.5990 ha         1 OE1       0.140000
     43 H19          3.0660    -1.8960     1.4360 hn         1 OE1       0.310700
     44 H22          4.4510     1.8030    -1.0170 ha         1 OE1       0.140000
     45 H26          5.2030    -1.8020     1.1940 ha         1 OE1       0.140000
     46 H23          6.8550     2.3330    -0.9430 ha         1 OE1       0.136500
     47 H24          8.4300     0.8050     0.2030 ha         1 OE1       0.135000
     48 H25          7.5780    -1.2610     1.2700 ha         1 OE1       0.136500
@<TRIPOS>BOND
     1     1     2 1   
     2     1    26 1   
     3     1    27 1   
     4     1    28 1   
     5     2     3 1   
     6     2    29 1   
     7     2    30 1   
     8     3     4 1   
     9     3    31 1   
    10     3    32 1   
    11     4     5 1   
    12     4     8 1   
    13     5     6 1   
    14     5    33 1   
    15     5    34 1   
    16     6     7 1   
    17     6    35 1   
    18     6    36 1   
    19     7    37 1   
    20     7    38 1   
    21     7    39 1   
    22     8     9 2   
    23     8    10 2   
    24     8    11 1   
    25    11    12 ar  
    26    11    16 ar  
    27    12    13 ar  
    28    12    40 1   
    29    13    14 ar  
    30    13    42 1   
    31    14    15 ar  
    32    14    19 1   
    33    15    16 ar  
    34    15    17 1   
    35    16    41 1   
    36    17    18 2   
    37    18    19 1   
    38    18    20 1   
    39    19    43 1   
    40    20    21 ar  
    41    20    25 ar  
    42    21    22 ar  
    43    21    44 1   
    44    22    23 ar  
    45    22    46 1   
    46    23    24 ar  
    47    23    47 1   
    48    24    25 ar  
    49    24    48 1   
    50    25    45 1   
@<TRIPOS>SUBSTRUCTURE
     1 OE1         1 TEMP              0 ****  ****    0 ROOT
