@<TRIPOS>MOLECULE
OE1
   48    50     1     0     0
SMALL
No Charge or Current Charge


@<TRIPOS>ATOM
      1 C1          -3.7370     4.3370    -0.4870 c3         1 OE1      -0.087600
      2 C2          -3.1660     2.9150    -0.3240 c3         1 OE1      -0.098900
      3 C3          -4.2050     1.8100    -0.6440 c3         1 OE1       0.223300
      4 N4          -3.7030     0.4160    -0.5340 n3         1 OE1      -0.780500
      5 C5          -3.1820    -0.0030     0.7910 c3         1 OE1       0.223300
      6 C6          -4.1540     0.2300     1.9700 c3         1 OE1      -0.098900
      7 C7          -3.6400    -0.3620     3.2970 c3         1 OE1      -0.087600
      8 S8          -2.9010    -0.2180    -1.9110 sy         1 OE1       1.186600
      9 O9          -3.7190    -1.3390    -2.3860 o          1 OE1      -0.541500
     10 O10         -2.5740     0.9200    -2.7780 o          1 OE1      -0.541500
     11 C11         -1.3400    -0.8260    -1.2520 ca         1 OE1      -0.319500
     12 C12         -1.1710    -2.2020    -0.9500 ca         1 OE1      -0.014000
     13 C13          0.0520    -2.6640    -0.4240 ca         1 OE1      -0.133000
     14 C14          1.0730    -1.7280    -0.2180 ca         1 OE1      -0.038200
     15 C15          0.9290    -0.4040    -0.5070 ca         1 OE1       0.044400
     16 C16         -0.2780     0.0850    -1.0330 ca         1 OE1       0.062000
     17 N17          2.0810     0.3050    -0.2120 nc         1 OE1      -0.562100
     18 C18          2.9090    -0.6520     0.2610 cd         1 OE1       0.473400
     19 N19          2.3290    -1.9300     0.2770 na         1 OE1      -0.306600
     20 C21          4.2880    -0.3480     0.7110 ca         1 OE1      -0.118900
     21 C22          4.7940     0.9740     0.6600 ca         1 OE1      -0.081500
     22 C23          6.1020     1.2600     1.0880 ca         1 OE1      -0.112500
     23 C24          6.9260     0.2330     1.5720 ca         1 OE1      -0.093000
     24 C25          6.4400    -1.0820     1.6290 ca         1 OE1      -0.112500
     25 C26          5.1320    -1.3720     1.2020 ca         1 OE1      -0.081500
     26 H11C        -2.9720     5.0860    -0.2470 hc         1 OE1       0.035200
     27 H12C        -4.0710     4.5060    -1.5180 hc         1 OE1       0.035200
     28 H13C        -4.5900     4.4920     0.1840 hc         1 OE1       0.035200
     29 H21C        -2.2930     2.8100    -0.9770 hc         1 OE1       0.050450
     30 H22C        -2.8080     2.7990     0.7050 hc         1 OE1       0.050450
     31 H31C        -5.0550     1.9450     0.0380 h1         1 OE1       0.055200
     32 H32C        -4.6110     1.9860    -1.6500 h1         1 OE1       0.055200
     33 H51C        -2.9750    -1.0820     0.7750 h1         1 OE1       0.055200
     34 H52C        -2.2310     0.5030     1.0100 h1         1 OE1       0.055200
     35 H61C        -4.3190     1.3040     2.1120 hc         1 OE1       0.050450
     36 H62C        -5.1250    -0.2190     1.7300 hc         1 OE1       0.050450
     37 H71C        -4.3570    -0.1720     4.1040 hc         1 OE1       0.035200
     38 H72C        -3.5000    -1.4470     3.2110 hc         1 OE1       0.035200
     39 H73C        -2.6800     0.0890     3.5780 hc         1 OE1       0.035200
     40 H12         -1.9820    -2.9110    -1.1160 ha         1 OE1       0.131000
     41 H16         -0.3820     1.1440    -1.2570 ha         1 OE1       0.154000
     42 H13          0.1950    -3.7150    -0.1850 ha         1 OE1       0.122000
     43 H19          2.7560    -2.7920     0.5850 hn         1 OE1       0.361000
     44 H22          4.1750     1.7880     0.2890 ha         1 OE1       0.122000
     45 H26          4.7840    -2.4010     1.2580 ha         1 OE1       0.122000
     46 H23          6.4760     2.2810     1.0430 ha         1 OE1       0.118500
     47 H24          7.9380     0.4560     1.9030 ha         1 OE1       0.117000
     48 H25          7.0780    -1.8800     2.0040 ha         1 OE1       0.118500
@<TRIPOS>BOND
     1     1     2 1   
     2     1    26 1   
     3     1    27 1   
     4     1    28 1   
     5     2     3 1   
     6     2    29 1   
     7     2    30 1   
     8     3     4 1   
     9     3    31 1   
    10     3    32 1   
    11     4     5 1   
    12     4     8 1   
    13     5     6 1   
    14     5    33 1   
    15     5    34 1   
    16     6     7 1   
    17     6    35 1   
    18     6    36 1   
    19     7    37 1   
    20     7    38 1   
    21     7    39 1   
    22     8     9 2   
    23     8    10 2   
    24     8    11 1   
    25    11    12 ar  
    26    11    16 ar  
    27    12    13 ar  
    28    12    40 1   
    29    13    14 ar  
    30    13    42 1   
    31    14    15 ar  
    32    14    19 1   
    33    15    16 ar  
    34    15    17 1   
    35    16    41 1   
    36    17    18 2   
    37    18    19 1   
    38    18    20 1   
    39    19    43 1   
    40    20    21 ar  
    41    20    25 ar  
    42    21    22 ar  
    43    21    44 1   
    44    22    23 ar  
    45    22    46 1   
    46    23    24 ar  
    47    23    47 1   
    48    24    25 ar  
    49    24    48 1   
    50    25    45 1   
@<TRIPOS>SUBSTRUCTURE
     1 OE1         1 TEMP              0 ****  ****    0 ROOT
