@<TRIPOS>MOLECULE
OE3
   45    47     1     0     0
SMALL
No Charge or Current Charge


@<TRIPOS>ATOM
      1 C1          -0.9500     5.3470    31.7080 ca         1 OE3      -0.169300
      2 N2           2.8420     6.8730    30.4500 n          1 OE3      -0.282000
      3 C3           0.4320     7.2100    30.9920 ca         1 OE3      -0.175000
      4 C4           1.5420     6.3520    30.8000 ca         1 OE3       0.120600
      5 C5           1.4020     4.9750    31.0990 ca         1 OE3      -0.134800
      6 C6           0.1460     4.4870    31.5290 ca         1 OE3      -0.018000
      7 C7           2.5420     4.0490    31.0110 cc         1 OE3       0.028600
      8 C11          2.9950     8.2850    30.0070 c3         1 OE3       0.085000
      9 C12         -2.2680     4.8070    32.2480 c3         1 OE3       0.265100
     10 C15          2.0170     6.7190    34.2350 ca         1 OE3      -0.133000
     11 C10          2.4240     2.5650    31.2640 c3         1 OE3      -0.063900
     12 C13          0.0800     5.3080    34.6910 ca         1 OE3      -0.256500
     13 C14          0.6290     6.5770    34.4130 ca         1 OE3      -0.011000
     14 C16          2.8610     5.6000    34.3350 ca         1 OE3      -0.054000
     15 C17          2.3160     4.3370    34.6210 ca         1 OE3      -0.133000
     16 C18          0.9290     4.1880    34.7980 ca         1 OE3      -0.011000
     17 C19          3.2220     9.2640    31.1760 c3         1 OE3      -0.112100
     18 C2          -0.8030     6.7130    31.4290 ca         1 OE3      -0.037000
     19 C8           3.7550     4.6280    30.7060 cd         1 OE3      -0.305200
     20 C9           3.9840     6.0490    30.4160 c          1 OE3       0.562200
     21 N1          -2.0930     4.1580    33.5600 n7         1 OE3      -0.892300
     22 O1          -1.9490     4.2210    36.0220 o          1 OE3      -0.547500
     23 O2          -2.4080     6.3750    34.7200 o          1 OE3      -0.547500
     24 O3           5.1030     6.4680    30.1520 o          1 OE3      -0.553000
     25 S1          -1.6990     5.1020    34.8790 sy         1 OE3       1.140600
     26 H3           0.5040     8.2790    30.8200 ha         1 OE3       0.127000
     27 H6           0.0140     3.4370    31.7730 ha         1 OE3       0.123000
     28 H11A         3.8380     8.3680    29.3090 h1         1 OE3       0.066700
     29 H11B         2.1100     8.5890    29.4330 h1         1 OE3       0.066700
     30 H12B        -3.0090     5.6170    32.3030 h1         1 OE3       0.056200
     31 H12A        -2.6550     4.0780    31.5240 h1         1 OE3       0.056200
     32 H10A         1.6830     2.1120    30.5950 hc         1 OE3       0.052033
     33 H10C         3.3780     2.0510    31.0950 hc         1 OE3       0.052033
     34 H10B         2.1210     2.3670    32.2990 hc         1 OE3       0.052033
     35 H14         -0.0130     7.4510    34.3210 ha         1 OE3       0.132500
     36 H16          3.9330     5.7120    34.1900 ha         1 OE3       0.119000
     37 H17          2.9680     3.4700    34.6960 ha         1 OE3       0.118000
     38 H18          0.5150     3.2030    35.0050 ha         1 OE3       0.132500
     39 H19C         3.3210    10.2890    30.8000 hc         1 OE3       0.045367
     40 H19A         2.3860     9.2370    31.8840 hc         1 OE3       0.045367
     41 H19B         4.1390     9.0060    31.7180 hc         1 OE3       0.045367
     42 H2          -1.6360     7.3970    31.5780 ha         1 OE3       0.128000
     43 H8           4.6560     4.0310    30.6460 ha         1 OE3       0.208000
     44 H1          -3.0000     3.8070    33.8620 hn         1 OE3       0.489000
     45 H15          2.4370     7.6970    34.0120 ha         1 OE3       0.118000
@<TRIPOS>BOND
     1     1     6 ar  
     2     1     9 1   
     3     1    18 ar  
     4     2     4 1   
     5     2     8 1   
     6     2    20 1   
     7     3     4 ar  
     8     3    18 ar  
     9     3    26 1   
    10     4     5 ar  
    11     5     6 ar  
    12     5     7 1   
    13     6    27 1   
    14     7    11 1   
    15     7    19 2   
    16     8    17 1   
    17     8    28 1   
    18     8    29 1   
    19     9    21 1   
    20     9    30 1   
    21     9    31 1   
    22    10    13 ar  
    23    10    14 ar  
    24    10    45 1   
    25    11    32 1   
    26    11    33 1   
    27    11    34 1   
    28    12    13 ar  
    29    12    16 ar  
    30    12    25 1   
    31    13    35 1   
    32    14    15 ar  
    33    14    36 1   
    34    15    16 ar  
    35    15    37 1   
    36    16    38 1   
    37    17    39 1   
    38    17    40 1   
    39    17    41 1   
    40    18    42 1   
    41    19    20 1   
    42    19    43 1   
    43    20    24 2   
    44    21    25 1   
    45    21    44 1   
    46    22    25 2   
    47    23    25 2   
@<TRIPOS>SUBSTRUCTURE
     1 OE3         1 TEMP              0 ****  ****    0 ROOT
