@<TRIPOS>MOLECULE
OE3
   45    47     1     0     0
SMALL
bcc


@<TRIPOS>ATOM
      1 C1          -0.9560     5.2980    31.6460 ca         1 OE3      -0.169300
      2 N2           2.7170     6.9070    30.3890 n          1 OE3      -0.349000
      3 C3           0.3520     7.1770    30.8640 ca         1 OE3      -0.193000
      4 C4           1.4980     6.3780    30.7720 ca         1 OE3       0.120600
      5 C5           1.3900     5.0080    31.0880 ca         1 OE3      -0.134800
      6 C6           0.1630     4.4990    31.5160 ca         1 OE3      -0.036000
      7 C7           2.5620     4.1730    30.9880 cc         1 OE3       0.028600
      8 C11          2.8400     8.3330    30.0890 c3         1 OE3       0.085000
      9 C12         -2.2320     4.7480    32.2180 c3         1 OE3       0.265100
     10 C15          2.2730     6.4590    34.1930 ca         1 OE3      -0.151000
     11 C10          2.4750     2.7100    31.2790 c3         1 OE3      -0.063900
     12 C13          0.1890     5.3720    34.6200 ca         1 OE3      -0.256500
     13 C14          0.8880     6.5190    34.2820 ca         1 OE3      -0.029000
     14 C16          2.9380     5.2690    34.4420 ca         1 OE3      -0.072000
     15 C17          2.2230     4.1290    34.7930 ca         1 OE3      -0.151000
     16 C18          0.8430     4.1750    34.8870 ca         1 OE3      -0.029000
     17 C19          3.0190     9.1800    31.3380 c3         1 OE3      -0.112100
     18 C2          -0.8440     6.6420    31.2970 ca         1 OE3      -0.055000
     19 C8           3.7320     4.7420    30.6360 cd         1 OE3      -0.255200
     20 C9           3.8750     6.1540    30.3520 c          1 OE3       0.704700
     21 N1          -2.0550     4.3090    33.6050 n7         1 OE3      -0.837100
     22 O1          -1.9630     4.8460    36.0300 o          1 OE3      -0.618300
     23 O2          -2.0280     6.7540    34.4040 o          1 OE3      -0.618300
     24 O3           4.9580     6.6630    30.0830 o          1 OE3      -0.628500
     25 S1          -1.5790     5.4110    34.7440 sy         1 OE3       1.282200
     26 H3           0.3800     8.2300    30.6300 ha         1 OE3       0.145000
     27 H6           0.0910     3.4520    31.7830 ha         1 OE3       0.141000
     28 H11A         3.6920     8.4570    29.4280 h1         1 OE3       0.066700
     29 H11B         1.9660     8.6480    29.5210 h1         1 OE3       0.066700
     30 H12B        -3.0350     5.4840    32.1210 h1         1 OE3       0.056200
     31 H12A        -2.5440     3.8580    31.6710 h1         1 OE3       0.056200
     32 H10A         1.7570     2.2180    30.6210 hc         1 OE3       0.052033
     33 H10C         3.4420     2.2290    31.1440 hc         1 OE3       0.052033
     34 H10B         2.1480     2.5330    32.3040 hc         1 OE3       0.052033
     35 H14          0.3710     7.4450    34.0740 ha         1 OE3       0.150500
     36 H16          4.0160     5.2250    34.3600 ha         1 OE3       0.137000
     37 H17          2.7430     3.2010    34.9910 ha         1 OE3       0.136000
     38 H18          0.2880     3.2830    35.1460 ha         1 OE3       0.150500
     39 H19C         3.0860    10.2320    31.0640 hc         1 OE3       0.045367
     40 H19A         2.1840     9.0670    32.0300 hc         1 OE3       0.045367
     41 H19B         3.9350     8.9090    31.8620 hc         1 OE3       0.045367
     42 H2          -1.7040     7.2930    31.3820 ha         1 OE3       0.146000
     43 H8           4.6360     4.1510    30.5610 ha         1 OE3       0.158000
     44 H1          -2.8170     3.7390    33.9570 hn         1 OE3       0.433800
     45 H15          2.8280     7.3470    33.9210 ha         1 OE3       0.136000
@<TRIPOS>BOND
     1     1     6 ar  
     2     1     9 1   
     3     1    18 ar  
     4     2     4 1   
     5     2     8 1   
     6     2    20 1   
     7     3     4 ar  
     8     3    18 ar  
     9     3    26 1   
    10     4     5 ar  
    11     5     6 ar  
    12     5     7 1   
    13     6    27 1   
    14     7    11 1   
    15     7    19 2   
    16     8    17 1   
    17     8    28 1   
    18     8    29 1   
    19     9    21 1   
    20     9    30 1   
    21     9    31 1   
    22    10    13 ar  
    23    10    14 ar  
    24    10    45 1   
    25    11    32 1   
    26    11    33 1   
    27    11    34 1   
    28    12    13 ar  
    29    12    16 ar  
    30    12    25 1   
    31    13    35 1   
    32    14    15 ar  
    33    14    36 1   
    34    15    16 ar  
    35    15    37 1   
    36    16    38 1   
    37    17    39 1   
    38    17    40 1   
    39    17    41 1   
    40    18    42 1   
    41    19    20 1   
    42    19    43 1   
    43    20    24 2   
    44    21    25 1   
    45    21    44 1   
    46    22    25 2   
    47    23    25 2   
@<TRIPOS>SUBSTRUCTURE
     1 OE3         1 TEMP              0 ****  ****    0 ROOT
