@<TRIPOS>MOLECULE
OE4
   51    55     1     0     0
SMALL
No Charge or Current Charge


@<TRIPOS>ATOM
      1 C1          -9.2360     1.0810     0.1010 ca         1 OE4      -0.164000
      2 C2          -8.9110     1.7280     1.3050 ca         1 OE4       0.339900
      3 C11         -2.7930    -0.9730    -0.3200 c          1 OE4       0.676100
      4 C14         -0.3730    -1.0360     0.5540 ca         1 OE4       0.009000
      5 C15          0.3040    -1.5710    -0.5640 ca         1 OE4      -0.162500
      6 C16          1.6770    -1.8630    -0.4930 ca         1 OE4      -0.058000
      7 C17          2.3970    -1.6210     0.6920 ca         1 OE4      -0.154300
      8 C18          1.7300    -1.0780     1.8040 ca         1 OE4      -0.058000
      9 C19          0.3570    -0.7860     1.7310 ca         1 OE4      -0.162500
     10 C20          3.8860    -1.9290     0.7630 c3         1 OE4       0.165300
     11 C22          5.1630     0.1890     1.2430 c          1 OE4       0.588100
     12 C23          5.9390     1.1460     0.4020 ca         1 OE4      -0.145600
     13 C24          5.9100     0.6970    -0.9130 ca         1 OE4      -0.145600
     14 C25          5.1140    -0.5630    -0.9620 c          1 OE4       0.588100
     15 C26          6.6180     2.3190     0.7620 ca         1 OE4      -0.046000
     16 C27          7.2770     3.0380    -0.2590 ca         1 OE4      -0.099500
     17 C28          7.2470     2.5810    -1.6000 ca         1 OE4      -0.099500
     18 C29          6.5580     1.3970    -1.9410 ca         1 OE4      -0.046000
     19 N3          -7.6680     1.7050     1.8370 nb         1 OE4      -0.662000
     20 C4          -6.7060     1.0260     1.1680 ca         1 OE4       0.345900
     21 C5          -6.9400     0.3450    -0.0500 ca         1 OE4      -0.134300
     22 C6          -8.2390     0.3770    -0.5920 ca         1 OE4      -0.065000
     23 C7          -5.8250    -0.4150    -0.7820 cy         1 OE4      -0.050400
     24 C8          -4.4830     0.3620    -1.0040 cy         1 OE4       0.113000
     25 N9          -3.9500    -0.3290     0.2180 nj         1 OE4      -0.450800
     26 C10         -4.9800    -1.4130     0.0830 cy         1 OE4       0.113000
     27 N12         -1.7560    -0.7060     0.5590 ns         1 OE4      -0.160000
     28 O13         -2.6150    -1.6580    -1.3250 o          1 OE4      -0.619100
     29 N21          4.7160    -0.7870     0.3550 n          1 OE4      -0.390400
     30 O31          4.9620     0.2430     2.4480 o          1 OE4      -0.490500
     31 H1         -10.2510     1.1300    -0.2840 ha         1 OE4       0.126000
     32 H2          -9.6680     2.2800     1.8600 h4         1 OE4       0.021100
     33 H3          -0.2100    -1.7590    -1.5000 ha         1 OE4       0.129000
     34 H4           2.1840    -2.2730    -1.3650 ha         1 OE4       0.123500
     35 H5           2.2740    -0.8770     2.7250 ha         1 OE4       0.123500
     36 H6          -0.1430    -0.3650     2.6010 ha         1 OE4       0.129000
     37 H7           4.1510    -2.2200     1.7880 h1         1 OE4       0.069200
     38 H8           4.1140    -2.7890     0.1200 h1         1 OE4       0.069200
     39 H9           6.6360     2.6650     1.7940 ha         1 OE4       0.138500
     40 H10          7.8120     3.9530    -0.0130 ha         1 OE4       0.121500
     41 H11          7.7600     3.1470    -2.3740 ha         1 OE4       0.121500
     42 H12          6.5300     1.0390    -2.9690 ha         1 OE4       0.138500
     43 H13         -5.7190     1.0310     1.6280 h4         1 OE4       0.028100
     44 H14         -8.4720    -0.1300    -1.5260 ha         1 OE4       0.117000
     45 H15         -6.1910    -0.8780    -1.7050 hc         1 OE4       0.072700
     46 H16         -4.0020     0.1490    -1.9670 h1         1 OE4       0.059200
     47 H17         -4.5720     1.4460    -0.8720 h1         1 OE4       0.059200
     48 H18         -5.4470    -1.6750     1.0400 h1         1 OE4       0.059200
     49 H19         -4.6960    -2.3300    -0.4480 h1         1 OE4       0.059200
     50 H20         -2.0420    -0.1610     1.3610 hn         1 OE4       0.147000
     51 O30          4.8650    -1.2550    -1.9390 o          1 OE4      -0.490500
@<TRIPOS>BOND
     1     1     2 ar  
     2     1    22 ar  
     3     1    31 1   
     4     2    19 ar  
     5     2    32 1   
     6     3    25 1   
     7     3    27 1   
     8     3    28 2   
     9     4     5 ar  
    10     4     9 ar  
    11     4    27 1   
    12     5     6 ar  
    13     5    33 1   
    14     6     7 ar  
    15     6    34 1   
    16     7     8 ar  
    17     7    10 1   
    18     8     9 ar  
    19     8    35 1   
    20     9    36 1   
    21    10    29 1   
    22    10    37 1   
    23    10    38 1   
    24    11    12 1   
    25    11    29 1   
    26    11    30 2   
    27    12    13 ar  
    28    12    15 ar  
    29    13    14 1   
    30    13    18 ar  
    31    14    29 1   
    32    14    51 2   
    33    15    16 ar  
    34    15    39 1   
    35    16    17 ar  
    36    16    40 1   
    37    17    18 ar  
    38    17    41 1   
    39    18    42 1   
    40    19    20 ar  
    41    20    21 ar  
    42    20    43 1   
    43    21    22 ar  
    44    21    23 1   
    45    22    44 1   
    46    23    24 1   
    47    23    26 1   
    48    23    45 1   
    49    24    25 1   
    50    24    46 1   
    51    24    47 1   
    52    25    26 1   
    53    26    48 1   
    54    26    49 1   
    55    27    50 1   
@<TRIPOS>SUBSTRUCTURE
     1 OE4         1 TEMP              0 ****  ****    0 ROOT
