@<TRIPOS>MOLECULE
OE4
   51    55     1     0     0
SMALL
bcc


@<TRIPOS>ATOM
      1 C1          -8.5590     1.8190     0.7290 ca         1 OE4      -0.247300
      2 C2          -7.8580     2.9200     0.2620 ca         1 OE4       0.405200
      3 C11         -2.6850    -1.4000    -0.8330 c          1 OE4       0.810100
      4 C14         -0.3500    -1.5580     0.0150 ca         1 OE4       0.101600
      5 C15          0.3270    -1.6860    -1.2000 ca         1 OE4      -0.180500
      6 C16          1.7030    -1.8680    -1.2060 ca         1 OE4      -0.076000
      7 C17          2.4430    -1.9260    -0.0320 ca         1 OE4      -0.154300
      8 C18          1.7580    -1.8090     1.1750 ca         1 OE4      -0.076000
      9 C19          0.3880    -1.6280     1.2010 ca         1 OE4      -0.180500
     10 C20          3.9400    -2.0740    -0.0610 c3         1 OE4       0.165300
     11 C22          5.0280    -0.1860     1.1830 c          1 OE4       0.730600
     12 C23          5.6090     1.1200     0.7900 ca         1 OE4      -0.145600
     13 C24          5.5080     1.2360    -0.5860 ca         1 OE4      -0.145600
     14 C25          4.8620     0.0070    -1.1010 c          1 OE4       0.730600
     15 C26          6.1680     2.1150     1.5630 ca         1 OE4      -0.064000
     16 C27          6.6300     3.2510     0.8990 ca         1 OE4      -0.117500
     17 C28          6.5300     3.3670    -0.4840 ca         1 OE4      -0.117500
     18 C29          5.9630     2.3530    -1.2540 ca         1 OE4      -0.064000
     19 N3          -6.6120     2.8440    -0.1930 nb         1 OE4      -0.662000
     20 C4          -6.0220     1.6570    -0.1960 ca         1 OE4       0.411200
     21 C5          -6.6270     0.4820     0.2500 ca         1 OE4      -0.199600
     22 C6          -7.9300     0.5830     0.7210 ca         1 OE4      -0.083000
     23 C7          -5.8990    -0.8240     0.2250 cy         1 OE4      -0.050400
     24 C8          -5.1760    -1.1870    -1.1010 cy         1 OE4       0.113000
     25 N9          -3.9150    -1.0690    -0.3990 nj         1 OE4      -0.517800
     26 C10         -4.5070    -0.8390     0.9090 cy         1 OE4       0.113000
     27 N12         -1.7190    -1.3400     0.1400 ns         1 OE4      -0.486100
     28 O13         -2.4760    -1.7070    -1.9990 o          1 OE4      -0.619100
     29 N21          4.6190    -0.7910     0.0060 n          1 OE4      -0.524400
     30 O31          4.9170    -0.6560     2.2880 o          1 OE4      -0.566000
     31 H1          -9.5720     1.9300     1.0890 ha         1 OE4       0.144000
     32 H2          -8.3200     3.9010     0.2550 h4         1 OE4       0.021100
     33 H3          -0.2040    -1.6410    -2.1360 ha         1 OE4       0.147000
     34 H4           2.2060    -1.9630    -2.1610 ha         1 OE4       0.141500
     35 H5           2.2990    -1.8620     2.1120 ha         1 OE4       0.141500
     36 H6          -0.1190    -1.5430     2.1550 ha         1 OE4       0.147000
     37 H7           4.2910    -2.6750     0.7770 h1         1 OE4       0.069200
     38 H8           4.2640    -2.5750    -0.9730 h1         1 OE4       0.069200
     39 H9           6.2470     2.0250     2.6380 ha         1 OE4       0.156500
     40 H10          7.0740     4.0570     1.4670 ha         1 OE4       0.139500
     41 H11          6.8990     4.2610    -0.9680 ha         1 OE4       0.139500
     42 H12          5.8840     2.4450    -2.3290 ha         1 OE4       0.156500
     43 H13         -5.0040     1.6340    -0.5760 h4         1 OE4       0.028100
     44 H14         -8.4490    -0.2980     1.0780 ha         1 OE4       0.135000
     45 H15         -6.5500    -1.6200     0.5830 hc         1 OE4       0.072700
     46 H16         -5.3910    -2.1930    -1.4660 h1         1 OE4       0.059200
     47 H17         -5.3080    -0.4760    -1.9190 h1         1 OE4       0.059200
     48 H18         -4.2060     0.0970     1.3860 h1         1 OE4       0.059200
     49 H19         -4.3680    -1.6610     1.6160 h1         1 OE4       0.059200
     50 H20         -2.0250    -1.1350     1.0790 hn         1 OE4       0.313500
     51 O30          4.5880    -0.2790    -2.2400 o          1 OE4      -0.566000
@<TRIPOS>BOND
     1     1     2 ar  
     2     1    22 ar  
     3     1    31 1   
     4     2    19 ar  
     5     2    32 1   
     6     3    25 1   
     7     3    27 1   
     8     3    28 2   
     9     4     5 ar  
    10     4     9 ar  
    11     4    27 1   
    12     5     6 ar  
    13     5    33 1   
    14     6     7 ar  
    15     6    34 1   
    16     7     8 ar  
    17     7    10 1   
    18     8     9 ar  
    19     8    35 1   
    20     9    36 1   
    21    10    29 1   
    22    10    37 1   
    23    10    38 1   
    24    11    12 1   
    25    11    29 1   
    26    11    30 2   
    27    12    13 ar  
    28    12    15 ar  
    29    13    14 1   
    30    13    18 ar  
    31    14    29 1   
    32    14    51 2   
    33    15    16 ar  
    34    15    39 1   
    35    16    17 ar  
    36    16    40 1   
    37    17    18 ar  
    38    17    41 1   
    39    18    42 1   
    40    19    20 ar  
    41    20    21 ar  
    42    20    43 1   
    43    21    22 ar  
    44    21    23 1   
    45    22    44 1   
    46    23    24 1   
    47    23    26 1   
    48    23    45 1   
    49    24    25 1   
    50    24    46 1   
    51    24    47 1   
    52    25    26 1   
    53    26    48 1   
    54    26    49 1   
    55    27    50 1   
@<TRIPOS>SUBSTRUCTURE
     1 OE4         1 TEMP              0 ****  ****    0 ROOT
