@<TRIPOS>MOLECULE
OE5
   74    78     1     0     0
SMALL
abcg2


@<TRIPOS>ATOM
      1 C4           4.3900     1.4880    -0.3100 ca         1 OE5       0.006800
      2 C5           4.9600     2.5970     0.3000 ca         1 OE5      -0.105000
      3 C6           4.2330     3.7730     0.4020 ca         1 OE5      -0.105500
      4 N1           6.3920     0.3170    -0.8840 nc         1 OE5      -0.508800
      5 C7           6.8080    -0.9300    -0.8650 cd         1 OE5       0.275300
      6 C8           5.8080    -1.7930    -0.3640 cd         1 OE5      -0.221000
      7 C9           4.7510    -0.9640    -0.0780 cc         1 OE5       0.006600
      8 C10          2.8210    -2.3550     0.4140 c          1 OE5       0.625700
      9 C11          1.4700    -2.3400     1.0410 ca         1 OE5      -0.151600
     10 C12          0.7270    -1.1720     1.2170 ca         1 OE5      -0.073500
     11 N3          -3.5030    -2.1320     1.8890 ns         1 OE5      -0.498900
     12 C13         -0.5320    -1.2190     1.7890 ca         1 OE5      -0.105500
     13 C14         -1.0810    -2.4310     2.2020 ca         1 OE5      -0.088300
     14 C15         -2.4560    -2.4810     2.8210 c3         1 OE5       0.146300
     15 N4          -6.5910    -1.0860    -0.8570 nc         1 OE5      -0.510800
     16 O1          -3.7310     0.0190     2.5540 o          1 OE5      -0.661100
     17 C16         -4.0640    -0.9070     1.8100 c          1 OE5       0.671700
     18 C17         -5.0970    -0.7330     0.8000 cd         1 OE5      -0.380600
     19 C19         -5.7330     0.4800     0.5180 cc         1 OE5       0.345000
     20 N6          -5.4970     1.7140     1.0060 nv         1 OE5      -1.081000
     21 N5          -6.6200     0.2150    -0.4660 na         1 OE5       0.160000
     22 C20         -7.4740     1.1290    -1.1220 ca         1 OE5       0.014800
     23 C25         -7.3980     1.2610    -2.5030 ca         1 OE5      -0.107500
     24 C24         -8.2380     2.1530    -3.1500 ca         1 OE5      -0.099000
     25 C23         -9.1390     2.9220    -2.4230 ca         1 OE5      -0.105000
     26 C22         -9.2100     2.7840    -1.0440 ca         1 OE5      -0.099000
     27 C21         -8.3870     1.8780    -0.3890 ca         1 OE5      -0.107500
     28 C18         -5.6890    -1.6470    -0.1010 cd         1 OE5       0.305900
     29 C26         -0.3430    -3.5950     2.0150 ca         1 OE5      -0.105500
     30 C27          0.9150    -3.5540     1.4350 ca         1 OE5      -0.073500
     31 O            3.2740    -3.3460    -0.1260 o          1 OE5      -0.565100
     32 C28          8.1920    -1.3210    -1.3130 c3         1 OE5      -0.072300
     33 C31          8.9330    -1.9470    -0.1230 c3         1 OE5      -0.079433
     34 C30          8.0840    -2.3570    -2.4370 c3         1 OE5      -0.079433
     35 C29          8.9700    -0.1060    -1.8180 c3         1 OE5      -0.079433
     36 N            5.1320     0.2930    -0.4210 na         1 OE5       0.185000
     37 C3           3.0980     1.5630    -0.8200 ca         1 OE5      -0.105000
     38 C2           2.3780     2.7400    -0.6920 ca         1 OE5      -0.105500
     39 C1           2.9310     3.8660    -0.0830 ca         1 OE5      -0.071300
     40 C            2.1450     5.1390     0.0260 c3         1 OE5      -0.048800
     41 H1           5.9660     2.5400     0.6950 ha         1 OE5       0.133500
     42 H2           4.6890     4.6320     0.8790 ha         1 OE5       0.118000
     43 H3           5.8650    -2.8560    -0.2120 ha         1 OE5       0.164000
     44 H4           3.1380    -0.4420     1.0690 hn         1 OE5       0.333500
     45 H5           1.1010    -0.2080     0.8920 ha         1 OE5       0.125000
     46 H6          -3.7600    -2.8340     1.2150 hn         1 OE5       0.315500
     47 H7          -1.0900    -0.3000     1.9180 ha         1 OE5       0.126500
     48 H8          -2.5080    -1.8010     3.6710 h1         1 OE5       0.065700
     49 H9          -2.6530    -3.4850     3.2000 h1         1 OE5       0.065700
     50 H10         -4.9720     1.7460     1.8650 hn         1 OE5       0.498500
     51 H11         -6.1870     2.4370     0.8880 hn         1 OE5       0.498500
     52 H12         -6.6850     0.6710    -3.0640 ha         1 OE5       0.128500
     53 H13         -8.1810     2.2570    -4.2260 ha         1 OE5       0.120500
     54 H14         -9.7870     3.6230    -2.9330 ha         1 OE5       0.119000
     55 H15         -9.9190     3.3680    -0.4730 ha         1 OE5       0.120500
     56 H16         -8.4740     1.7430     0.6820 ha         1 OE5       0.128500
     57 H17         -5.4870    -2.7030    -0.2110 h4         1 OE5       0.034100
     58 H18         -0.7550    -4.5480     2.3230 ha         1 OE5       0.126500
     59 H19          1.4690    -4.4730     1.2960 ha         1 OE5       0.125000
     60 H20          8.4210    -2.8410     0.2360 hc         1 OE5       0.036589
     61 H21          9.9440    -2.2380    -0.4160 hc         1 OE5       0.036589
     62 H22          9.0100    -1.2460     0.7090 hc         1 OE5       0.036589
     63 H23          7.5530    -1.9540    -3.3010 hc         1 OE5       0.036589
     64 H24          9.0790    -2.6630    -2.7670 hc         1 OE5       0.036589
     65 H25          7.5570    -3.2550    -2.1080 hc         1 OE5       0.036589
     66 H26          9.0650     0.6640    -1.0530 hc         1 OE5       0.036589
     67 H27          9.9760    -0.4100    -2.1130 hc         1 OE5       0.036589
     68 H28          8.4900     0.3450    -2.6880 hc         1 OE5       0.036589
     69 H29          2.6570     0.7160    -1.3290 ha         1 OE5       0.133500
     70 H30          1.3710     2.7850    -1.0900 ha         1 OE5       0.118000
     71 H31          1.9780     5.5800    -0.9580 hc         1 OE5       0.045033
     72 H32          1.1640     4.9630     0.4680 hc         1 OE5       0.045033
     73 H33          2.6620     5.8780     0.6360 hc         1 OE5       0.045033
     74 N2           3.5110    -1.1840     0.4940 ns         1 OE5      -0.403100
@<TRIPOS>BOND
     1     1     2 ar  
     2     1    36 1   
     3     1    37 ar  
     4     2     3 ar  
     5     2    41 1   
     6     3    39 ar  
     7     3    42 1   
     8     4     5 2   
     9     4    36 1   
    10     5     6 1   
    11     5    32 1   
    12     6     7 2   
    13     6    43 1   
    14     7    36 1   
    15     7    74 1   
    16     8     9 1   
    17     8    31 2   
    18     8    74 1   
    19     9    10 ar  
    20     9    30 ar  
    21    10    12 ar  
    22    10    45 1   
    23    11    14 1   
    24    11    17 1   
    25    11    46 1   
    26    12    13 ar  
    27    12    47 1   
    28    13    14 1   
    29    13    29 ar  
    30    14    48 1   
    31    14    49 1   
    32    15    21 1   
    33    15    28 2   
    34    16    17 2   
    35    17    18 1   
    36    18    19 2   
    37    18    28 1   
    38    19    20 1   
    39    19    21 1   
    40    20    50 1   
    41    20    51 1   
    42    21    22 1   
    43    22    23 ar  
    44    22    27 ar  
    45    23    24 ar  
    46    23    52 1   
    47    24    25 ar  
    48    24    53 1   
    49    25    26 ar  
    50    25    54 1   
    51    26    27 ar  
    52    26    55 1   
    53    27    56 1   
    54    28    57 1   
    55    29    30 ar  
    56    29    58 1   
    57    30    59 1   
    58    32    33 1   
    59    32    34 1   
    60    32    35 1   
    61    33    60 1   
    62    33    61 1   
    63    33    62 1   
    64    34    63 1   
    65    34    64 1   
    66    34    65 1   
    67    35    66 1   
    68    35    67 1   
    69    35    68 1   
    70    37    38 ar  
    71    37    69 1   
    72    38    39 ar  
    73    38    70 1   
    74    39    40 1   
    75    40    71 1   
    76    40    72 1   
    77    40    73 1   
    78    44    74 1   
@<TRIPOS>SUBSTRUCTURE
     1 OE5         1 TEMP              0 ****  ****    0 ROOT
