@<TRIPOS>MOLECULE
OE5
   74    78     1     0     0
SMALL
No Charge or Current Charge


@<TRIPOS>ATOM
      1 C4           4.7660     1.6770    -0.0480 ca         1 OE5       0.006800
      2 C5           5.4170     2.5560     0.8410 ca         1 OE5      -0.105000
      3 C6           4.8350     3.7930     1.1680 ca         1 OE5      -0.105500
      4 N1           6.5780     0.3820    -0.9480 nc         1 OE5      -0.508800
      5 C7           6.7320    -0.9240    -1.1200 cd         1 OE5       0.275300
      6 C8           5.6090    -1.6640    -0.6590 cd         1 OE5      -0.221000
      7 C9           4.6980    -0.7760    -0.1670 cc         1 OE5       0.006600
      8 C10          2.7850    -2.2060     0.6080 c          1 OE5       0.625700
      9 C11          1.4200    -2.1110     1.2660 ca         1 OE5      -0.151600
     10 C12          0.8400    -0.8730     1.6430 ca         1 OE5      -0.073500
     11 N3          -3.5690    -1.7400     2.1510 ns         1 OE5      -0.498900
     12 C13         -0.4280    -0.8320     2.2490 ca         1 OE5      -0.105500
     13 C14         -1.1440    -2.0160     2.4930 ca         1 OE5      -0.088300
     14 C15         -2.5180    -1.9630     3.1450 c3         1 OE5       0.146300
     15 N4          -6.5100    -1.4450    -0.8310 nc         1 OE5      -0.510800
     16 O1          -3.8260     0.5010     2.4680 o          1 OE5      -0.661100
     17 C16         -4.1360    -0.5210     1.8720 c          1 OE5       0.671700
     18 C17         -5.1430    -0.5810     0.8050 cd         1 OE5      -0.380600
     19 C19         -5.8430     0.4800     0.3340 cc         1 OE5       0.345000
     20 N6          -5.8010     1.8050     0.6710 nv         1 OE5      -1.081000
     21 N5          -6.6540    -0.0880    -0.6530 na         1 OE5       0.160000
     22 C20         -7.6020     0.6150    -1.4010 ca         1 OE5       0.014800
     23 C25         -7.4700     0.7110    -2.8020 ca         1 OE5      -0.107500
     24 C24         -8.4230     1.4170    -3.5570 ca         1 OE5      -0.099000
     25 C23         -9.5150     2.0280    -2.9180 ca         1 OE5      -0.105000
     26 C22         -9.6560     1.9310    -1.5230 ca         1 OE5      -0.099000
     27 C21         -8.7030     1.2260    -0.7660 ca         1 OE5      -0.107500
     28 C18         -5.5790    -1.7150     0.0690 cd         1 OE5       0.305900
     29 C26         -0.5790    -3.2480     2.1210 ca         1 OE5      -0.105500
     30 C27          0.6870    -3.2960     1.5150 ca         1 OE5      -0.073500
     31 O            3.2610    -3.2830     0.2730 o          1 OE5      -0.565100
     32 C28          7.9900    -1.5230    -1.7490 c3         1 OE5      -0.072300
     33 C31          8.6510    -2.4930    -0.7340 c3         1 OE5      -0.079433
     34 C30          7.5920    -2.3090    -3.0260 c3         1 OE5      -0.079433
     35 C29          9.0320    -0.4350    -2.1430 c3         1 OE5      -0.079433
     36 N            5.3370     0.4420    -0.3610 na         1 OE5       0.185000
     37 C3           3.5300     2.0550    -0.6110 ca         1 OE5      -0.105000
     38 C2           2.9500     3.2930    -0.2820 ca         1 OE5      -0.105500
     39 C1           3.6000     4.1680     0.6080 ca         1 OE5      -0.071300
     40 C            2.9690     5.5050     0.9660 c3         1 OE5      -0.048800
     41 H1           6.3710     2.2750     1.2810 ha         1 OE5       0.133500
     42 H2           5.3460     4.4600     1.8590 ha         1 OE5       0.118000
     43 H3           5.5120    -2.7420    -0.6950 ha         1 OE5       0.164000
     44 H4           2.9410    -0.2020     0.7400 hn         1 OE5       0.333500
     45 H5           1.3500     0.0710     1.4750 ha         1 OE5       0.125000
     46 H6          -3.8840    -2.5280     1.6040 hn         1 OE5       0.315500
     47 H7          -0.8580     0.1280     2.5280 ha         1 OE5       0.126500
     48 H8          -2.5410    -1.1660     3.9010 h1         1 OE5       0.065700
     49 H9          -2.7200    -2.9100     3.6620 h1         1 OE5       0.065700
     50 H10         -5.2550     2.0750     1.4890 hn         1 OE5       0.498500
     51 H11         -6.5180     2.4460     0.3380 hn         1 OE5       0.498500
     52 H12         -6.6270     0.2390    -3.3020 ha         1 OE5       0.128500
     53 H13         -8.3150     1.4890    -4.6380 ha         1 OE5       0.120500
     54 H14        -10.2520     2.5740    -3.5030 ha         1 OE5       0.119000
     55 H15        -10.5040     2.4010    -1.0280 ha         1 OE5       0.120500
     56 H16         -8.8240     1.1480     0.3120 ha         1 OE5       0.128500
     57 H17         -5.2430    -2.7390     0.1680 h4         1 OE5       0.034100
     58 H18         -1.1220    -4.1740     2.2990 ha         1 OE5       0.126500
     59 H19          1.0990    -4.2640     1.2380 ha         1 OE5       0.125000
     60 H20          7.9710    -3.3110    -0.4660 hc         1 OE5       0.036589
     61 H21          9.5630    -2.9380    -1.1510 hc         1 OE5       0.036589
     62 H22          8.9220    -1.9640     0.1880 hc         1 OE5       0.036589
     63 H23          7.1030    -1.6480    -3.7520 hc         1 OE5       0.036589
     64 H24          8.4740    -2.7500    -3.5090 hc         1 OE5       0.036589
     65 H25          6.8970    -3.1240    -2.7900 hc         1 OE5       0.036589
     66 H26          9.3550     0.1380    -1.2650 hc         1 OE5       0.036589
     67 H27          9.9240    -0.8900    -2.5910 hc         1 OE5       0.036589
     68 H28          8.6130     0.2670    -2.8750 hc         1 OE5       0.036589
     69 H29          3.0220     1.3930    -1.3080 ha         1 OE5       0.133500
     70 H30          1.9950     3.5720    -0.7220 ha         1 OE5       0.118000
     71 H31          2.3680     5.8990     0.1370 hc         1 OE5       0.045033
     72 H32          2.3130     5.4060     1.8380 hc         1 OE5       0.045033
     73 H33          3.7320     6.2570     1.2040 hc         1 OE5       0.045033
     74 N2           3.4500    -1.0100     0.4100 ns         1 OE5      -0.403100
@<TRIPOS>BOND
     1     1     2 ar  
     2     1    36 1   
     3     1    37 ar  
     4     2     3 ar  
     5     2    41 1   
     6     3    39 ar  
     7     3    42 1   
     8     4     5 2   
     9     4    36 1   
    10     5     6 1   
    11     5    32 1   
    12     6     7 2   
    13     6    43 1   
    14     7    36 1   
    15     7    74 1   
    16     8     9 1   
    17     8    31 2   
    18     8    74 1   
    19     9    10 ar  
    20     9    30 ar  
    21    10    12 ar  
    22    10    45 1   
    23    11    14 1   
    24    11    17 1   
    25    11    46 1   
    26    12    13 ar  
    27    12    47 1   
    28    13    14 1   
    29    13    29 ar  
    30    14    48 1   
    31    14    49 1   
    32    15    21 1   
    33    15    28 2   
    34    16    17 2   
    35    17    18 1   
    36    18    19 2   
    37    18    28 1   
    38    19    20 1   
    39    19    21 1   
    40    20    50 1   
    41    20    51 1   
    42    21    22 1   
    43    22    23 ar  
    44    22    27 ar  
    45    23    24 ar  
    46    23    52 1   
    47    24    25 ar  
    48    24    53 1   
    49    25    26 ar  
    50    25    54 1   
    51    26    27 ar  
    52    26    55 1   
    53    27    56 1   
    54    28    57 1   
    55    29    30 ar  
    56    29    58 1   
    57    30    59 1   
    58    32    33 1   
    59    32    34 1   
    60    32    35 1   
    61    33    60 1   
    62    33    61 1   
    63    33    62 1   
    64    34    63 1   
    65    34    64 1   
    66    34    65 1   
    67    35    66 1   
    68    35    67 1   
    69    35    68 1   
    70    37    38 ar  
    71    37    69 1   
    72    38    39 ar  
    73    38    70 1   
    74    39    40 1   
    75    40    71 1   
    76    40    72 1   
    77    40    73 1   
    78    44    74 1   
@<TRIPOS>SUBSTRUCTURE
     1 OE5         1 TEMP              0 ****  ****    0 ROOT
