@<TRIPOS>MOLECULE
OE6
   31    33     1     0     0
SMALL
abcg2


@<TRIPOS>ATOM
      1 N1           7.3610    -0.3830    19.6230 na         1 OE6       0.185300
      2 N3           7.0890     0.3750    17.6290 nc         1 OE6      -0.210400
      3 C4          10.9140    -0.8010    22.8390 ca         1 OE6      -0.073300
      4 C5           9.4830    -1.1700    22.5490 c3         1 OE6      -0.099100
      5 C6           8.8920    -0.3310    21.4300 c          1 OE6       0.604100
      6 C7           6.0430     0.8380    18.4040 ca         1 OE6       0.015400
      7 C8           4.9500     1.6500    18.0810 ca         1 OE6      -0.024000
      8 C10          4.2570     1.4520    20.4120 ca         1 OE6      -0.073000
      9 C13         11.9300    -1.2820    22.0130 ca         1 OE6      -0.089000
     10 O            9.1260     0.8500    21.2620 o          1 OE6      -0.532100
     11 C3          11.2400     0.0340    23.9050 ca         1 OE6      -0.086000
     12 C2          12.5640     0.3850    24.1470 ca         1 OE6      -0.099000
     13 C1          13.5810    -0.0880    23.3270 ca         1 OE6      -0.092000
     14 C           13.2440    -0.9190    22.2660 ca         1 OE6       0.126000
     15 CL          14.5120    -1.5280    21.2200 cl         1 OE6      -0.207000
     16 N            8.0250    -1.0230    20.6210 ns         1 OE6      -0.407200
     17 C12          6.2140     0.3550    19.7080 ca         1 OE6      -0.052200
     18 N2           7.8700    -0.3390    18.3630 nd         1 OE6      -0.131400
     19 C11          5.3300     0.6480    20.7450 ca         1 OE6      -0.109000
     20 C9           4.0670     1.9460    19.1010 ca         1 OE6      -0.138000
     21 H1           8.8600    -0.9900    23.4280 hc         1 OE6       0.070200
     22 H2           9.3990    -2.2300    22.3030 hc         1 OE6       0.070200
     23 H3           4.8110     2.0260    17.0760 ha         1 OE6       0.137000
     24 H4           3.5370     1.7160    21.1770 ha         1 OE6       0.117000
     25 H5          11.6980    -1.9340    21.1810 ha         1 OE6       0.130000
     26 H6          10.4540     0.4080    24.5500 ha         1 OE6       0.118000
     27 H7          12.8090     1.0320    24.9790 ha         1 OE6       0.122000
     28 H8          14.6130     0.1790    23.5070 ha         1 OE6       0.132000
     29 H9           7.8180    -2.0020    20.7560 hn         1 OE6       0.350500
     30 H10          5.4800     0.2710    21.7470 ha         1 OE6       0.125000
     31 H11          3.2080     2.5720    18.8990 ha         1 OE6       0.120000
@<TRIPOS>BOND
     1     1    16 1   
     2     1    17 1   
     3     1    18 1   
     4     2     6 1   
     5     2    18 2   
     6     3     4 1   
     7     3     9 ar  
     8     3    11 ar  
     9     4     5 1   
    10     4    21 1   
    11     4    22 1   
    12     5    10 2   
    13     5    16 1   
    14     6     7 ar  
    15     6    17 ar  
    16     7    20 ar  
    17     7    23 1   
    18     8    19 ar  
    19     8    20 ar  
    20     8    24 1   
    21     9    14 ar  
    22     9    25 1   
    23    11    12 ar  
    24    11    26 1   
    25    12    13 ar  
    26    12    27 1   
    27    13    14 ar  
    28    13    28 1   
    29    14    15 1   
    30    16    29 1   
    31    17    19 ar  
    32    19    30 1   
    33    20    31 1   
@<TRIPOS>SUBSTRUCTURE
     1 OE6         1 TEMP              0 ****  ****    0 ROOT
