@<TRIPOS>MOLECULE
OE6
   31    33     1     0     0
SMALL
No Charge or Current Charge


@<TRIPOS>ATOM
      1 N1           7.7010     0.2710    19.7740 na         1 OE6       0.185300
      2 N3           7.5400     1.3370    17.8870 nc         1 OE6      -0.210400
      3 C4          10.8160    -0.6910    22.9990 ca         1 OE6      -0.073300
      4 C5           9.2920    -0.7530    23.0270 c3         1 OE6      -0.099100
      5 C6           8.6910     0.1700    21.9600 c          1 OE6       0.604100
      6 C7           6.2820     1.2090    18.4810 ca         1 OE6       0.015400
      7 C8           5.0360     1.6640    18.0230 ca         1 OE6      -0.024000
      8 C10          4.0160     0.7040    20.0450 ca         1 OE6      -0.073000
      9 C13         11.5520    -1.5950    22.2060 ca         1 OE6      -0.089000
     10 O            8.6280     1.3840    22.1120 o          1 OE6      -0.532100
     11 C3          11.5020     0.2760    23.7600 ca         1 OE6      -0.086000
     12 C2          12.9060     0.3390    23.7310 ca         1 OE6      -0.099000
     13 C1          13.6340    -0.5660    22.9390 ca         1 OE6      -0.092000
     14 C           12.9550    -1.5310    22.1780 ca         1 OE6       0.126000
     15 Cl          13.8640    -2.6640    21.1860 cl         1 OE6      -0.207000
     16 N            8.2430    -0.4670    20.8230 ns         1 OE6      -0.407200
     17 C12          6.3770     0.5390    19.6610 ca         1 OE6      -0.052200
     18 N2           8.4200     0.7380    18.6990 nd         1 OE6      -0.131400
     19 C11          5.2790     0.2570    20.4860 ca         1 OE6      -0.109000
     20 C9           3.8960     1.4040    18.8190 ca         1 OE6      -0.138000
     21 H1           8.9300    -0.4300    24.0100 hc         1 OE6       0.070200
     22 H2           8.9700    -1.7860    22.8490 hc         1 OE6       0.070200
     23 H3           4.9520     2.2000    17.0810 ha         1 OE6       0.137000
     24 H4           3.1310     0.5100    20.6490 ha         1 OE6       0.117000
     25 H5          11.0410    -2.3480    21.6110 ha         1 OE6       0.130000
     26 H6          10.9470     0.9830    24.3730 ha         1 OE6       0.118000
     27 H7          13.4290     1.0890    24.3200 ha         1 OE6       0.122000
     28 H8          14.7200    -0.5200    22.9140 ha         1 OE6       0.132000
     29 H9           8.3180    -1.4720    20.7330 hn         1 OE6       0.350500
     30 H10          5.3940    -0.2800    21.4240 ha         1 OE6       0.125000
     31 H11          2.9180     1.7460    18.4850 ha         1 OE6       0.120000
@<TRIPOS>BOND
     1     1    16 1   
     2     1    17 1   
     3     1    18 1   
     4     2     6 1   
     5     2    18 2   
     6     3     4 1   
     7     3     9 ar  
     8     3    11 ar  
     9     4     5 1   
    10     4    21 1   
    11     4    22 1   
    12     5    10 2   
    13     5    16 1   
    14     6     7 ar  
    15     6    17 ar  
    16     7    20 ar  
    17     7    23 1   
    18     8    19 ar  
    19     8    20 ar  
    20     8    24 1   
    21     9    14 ar  
    22     9    25 1   
    23    11    12 ar  
    24    11    26 1   
    25    12    13 ar  
    26    12    27 1   
    27    13    14 ar  
    28    13    28 1   
    29    14    15 1   
    30    16    29 1   
    31    17    19 ar  
    32    19    30 1   
    33    20    31 1   
@<TRIPOS>SUBSTRUCTURE
     1 OE6         1 TEMP              0 ****  ****    0 ROOT
