@<TRIPOS>MOLECULE
OE7
   46    49     1     0     0
SMALL
abcg2


@<TRIPOS>ATOM
      1 N1          -6.0290     0.1720     2.0940 nc         1 OE7      -0.713100
      2 C1          -5.3600    -0.6690     1.2800 cc         1 OE7       0.159400
      3 O1          -4.6660     1.3520    -1.5990 o          1 OE7      -0.549000
      4 N2          -5.6990     1.7440     0.3830 ns         1 OE7      -0.454400
      5 C2          -4.8270    -0.3920     0.0210 cd         1 OE7      -0.291600
      6 O2           2.3760     0.9710    -2.2840 o          1 OE7      -0.636100
      7 N3          -5.1030    -1.9610     1.5570 na         1 OE7      -0.106000
      8 C3          -5.0140     0.9140    -0.5110 c          1 OE7       0.625600
      9 O3           4.1370    -1.4590     3.3130 o          1 OE7      -0.705000
     10 N4          -6.7720     2.3350     2.3420 nv         1 OE7      -1.036200
     11 C4          -6.1720     1.3750     1.6090 cd         1 OE7       0.717800
     12 O4           2.4050    -1.3260     1.9340 o          1 OE7      -0.705000
     13 C5          -4.2260    -1.5940    -0.4700 cd         1 OE7      -0.053300
     14 N5           2.6750    -0.1380    -0.3120 ns         1 OE7      -0.162000
     15 C6          -4.4200    -2.5310     0.5020 cc         1 OE7      -0.198000
     16 C10         -0.3730     0.3690    -2.2180 ca         1 OE7      -0.068000
     17 C11          0.5710    -0.3080    -1.4510 ca         1 OE7      -0.136600
     18 C12          0.1860    -1.4810    -0.8000 ca         1 OE7      -0.068000
     19 C13         -1.1130    -1.9480    -0.9090 ca         1 OE7      -0.120000
     20 C14          1.9620     0.2370    -1.3990 c          1 OE7       0.615700
     21 C15          3.9970     0.1350     0.0130 ca         1 OE7       0.017000
     22 C16          4.8620     0.8340    -0.8350 ca         1 OE7      -0.174000
     23 C17          6.1710     1.0480    -0.4420 ca         1 OE7       0.140000
     24 C18          6.6630     0.5930     0.7680 ca         1 OE7      -0.171000
     25 C19          5.7930    -0.0950     1.5980 ca         1 OE7      -0.057000
     26 C20          4.4680    -0.3400     1.2590 ca         1 OE7      -0.199600
     27 C21          3.6050    -1.1060     2.2550 c          1 OE7       0.725600
     28 C7          -3.4770    -1.7850    -1.7510 c3         1 OE7       0.043200
     29 C8          -2.0640    -1.2630    -1.6620 ca         1 OE7      -0.072300
     30 C9          -1.6750    -0.0980    -2.3140 ca         1 OE7      -0.120000
     31 CL1          7.2240     1.9200    -1.5120 cl         1 OE7      -0.262000
     32 H1          -5.8500     2.6960     0.0740 hn         1 OE7       0.317500
     33 H2          -5.3900    -2.4420     2.3930 hn         1 OE7       0.355000
     34 H4          -7.2780     2.0260     3.1540 hn         1 OE7       0.486000
     35 H5          -7.1540     3.1450     1.8830 hn         1 OE7       0.486000
     36 H6           2.2280    -0.6610     0.4670 hn         1 OE7       0.236000
     37 H7          -4.1240    -3.5670     0.5350 h4         1 OE7       0.150000
     38 H8          -0.0930     1.2760    -2.7380 ha         1 OE7       0.136000
     39 H9           0.8940    -2.0580    -0.2210 ha         1 OE7       0.136000
     40 H10         -1.3890    -2.8660    -0.4030 ha         1 OE7       0.111500
     41 H11          4.5190     1.2080    -1.7850 ha         1 OE7       0.148000
     42 H12          7.6890     0.7680     1.0580 ha         1 OE7       0.107000
     43 H13          6.1560    -0.4590     2.5490 ha         1 OE7       0.132000
     44 H14         -3.4500    -2.8500    -1.9920 hc         1 OE7       0.050700
     45 H15         -3.9980    -1.2890    -2.5710 hc         1 OE7       0.050700
     46 H16         -2.3970     0.4530    -2.9010 ha         1 OE7       0.111500
@<TRIPOS>BOND
     1     1     2 1   
     2     1    11 2   
     3     2     5 2   
     4     2     7 1   
     5     3     8 2   
     6     4     8 1   
     7     4    11 1   
     8     4    32 1   
     9     5     8 1   
    10     5    13 1   
    11     6    20 2   
    12     7    15 1   
    13     7    33 1   
    14     9    27 1   
    15    10    11 1   
    16    10    34 1   
    17    10    35 1   
    18    12    27 1   
    19    13    15 2   
    20    13    28 1   
    21    14    20 1   
    22    14    21 1   
    23    14    36 1   
    24    15    37 1   
    25    16    17 ar  
    26    16    30 ar  
    27    16    38 1   
    28    17    18 ar  
    29    17    20 1   
    30    18    19 ar  
    31    18    39 1   
    32    19    29 ar  
    33    19    40 1   
    34    21    22 ar  
    35    21    26 ar  
    36    22    23 ar  
    37    22    41 1   
    38    23    24 ar  
    39    23    31 1   
    40    24    25 ar  
    41    24    42 1   
    42    25    26 ar  
    43    25    43 1   
    44    26    27 1   
    45    28    29 1   
    46    28    44 1   
    47    28    45 1   
    48    29    30 ar  
    49    30    46 1   
@<TRIPOS>SUBSTRUCTURE
     1 OE7         1 TEMP              0 ****  ****    0 ROOT
