@<TRIPOS>MOLECULE
OE7
   46    49     1     0     0
SMALL
No Charge or Current Charge


@<TRIPOS>ATOM
      1 N1          -6.3760     0.2020     2.0250 nc         1 OE7      -0.713100
      2 C1          -5.5880    -0.6680     1.3150 cc         1 OE7       0.159400
      3 O1          -4.8180     1.2720    -1.6190 o          1 OE7      -0.549000
      4 N2          -6.0460     1.7210     0.2220 ns         1 OE7      -0.454400
      5 C2          -5.0330    -0.3910     0.1030 cd         1 OE7      -0.291600
      6 O2           2.3030     1.4730    -1.8500 o          1 OE7      -0.636100
      7 N3          -5.2060    -1.9520     1.6590 na         1 OE7      -0.106000
      8 C3          -5.2600     0.9180    -0.5380 c          1 OE7       0.625600
      9 O3           4.2080    -1.3050     3.3070 o          1 OE7      -0.705000
     10 N4          -7.3050     2.2230     2.0520 nv         1 OE7      -1.036200
     11 C4          -6.5450     1.3480     1.4140 cd         1 OE7       0.717800
     12 O4           3.0370    -2.0550     1.6670 o          1 OE7      -0.705000
     13 C5          -4.2830    -1.5220    -0.3220 cd         1 OE7      -0.053300
     14 N5           2.8570    -0.1600    -0.3300 ns         1 OE7      -0.162000
     15 C6          -4.3980    -2.4890     0.6500 cc         1 OE7      -0.198000
     16 C10         -0.3800     0.5440    -2.1080 ca         1 OE7      -0.068000
     17 C11          0.5780    -0.0880    -1.2800 ca         1 OE7      -0.136600
     18 C12          0.1820    -1.2440    -0.5620 ca         1 OE7      -0.068000
     19 C13         -1.1280    -1.7410    -0.6710 ca         1 OE7      -0.120000
     20 C14          1.9830     0.4860    -1.1950 c          1 OE7       0.615700
     21 C15          4.2340     0.0360    -0.0280 ca         1 OE7       0.017000
     22 C16          5.0820     0.7740    -0.8840 ca         1 OE7      -0.174000
     23 C17          6.4340     0.9590    -0.5690 ca         1 OE7       0.140000
     24 C18          6.9650     0.4090     0.6020 ca         1 OE7      -0.171000
     25 C19          6.1420    -0.3380     1.4580 ca         1 OE7      -0.057000
     26 C20          4.7760    -0.5400     1.1550 ca         1 OE7      -0.199600
     27 C21          3.9350    -1.3590     2.1170 c          1 OE7       0.725600
     28 C7          -3.4900    -1.6540    -1.6010 c3         1 OE7       0.043200
     29 C8          -2.0730    -1.1030    -1.4930 ca         1 OE7      -0.072300
     30 C9          -1.6880     0.0420    -2.2120 ca         1 OE7      -0.120000
     31 Cl1          7.4680     1.8820    -1.6500 cl         1 OE7      -0.262000
     32 H1          -6.2320     2.6400    -0.1410 hn         1 OE7       0.317500
     33 H2          -5.4780    -2.4180     2.5160 hn         1 OE7       0.355000
     34 H4          -7.8090     1.8260     2.8340 hn         1 OE7       0.486000
     35 H5          -7.8250     2.8860     1.4910 hn         1 OE7       0.486000
     36 H6           2.4440    -0.9260     0.1880 hn         1 OE7       0.236000
     37 H7          -3.9780    -3.4870     0.7070 h4         1 OE7       0.150000
     38 H8          -0.1130     1.4330    -2.6760 ha         1 OE7       0.136000
     39 H9           0.8740    -1.7770     0.0850 ha         1 OE7       0.136000
     40 H10         -1.4100    -2.6290    -0.1100 ha         1 OE7       0.111500
     41 H11          4.7130     1.2030    -1.8100 ha         1 OE7       0.148000
     42 H12          8.0150     0.5540     0.8440 ha         1 OE7       0.107000
     43 H13          6.5720    -0.7680     2.3620 ha         1 OE7       0.132000
     44 H14         -3.4390    -2.7130    -1.8840 hc         1 OE7       0.050700
     45 H15         -4.0290    -1.1690    -2.4230 hc         1 OE7       0.050700
     46 H16         -2.4040     0.5490    -2.8550 ha         1 OE7       0.111500
@<TRIPOS>BOND
     1     1     2 1   
     2     1    11 2   
     3     2     5 2   
     4     2     7 1   
     5     3     8 2   
     6     4     8 1   
     7     4    11 1   
     8     4    32 1   
     9     5     8 1   
    10     5    13 1   
    11     6    20 2   
    12     7    15 1   
    13     7    33 1   
    14     9    27 1   
    15    10    11 1   
    16    10    34 1   
    17    10    35 1   
    18    12    27 1   
    19    13    15 2   
    20    13    28 1   
    21    14    20 1   
    22    14    21 1   
    23    14    36 1   
    24    15    37 1   
    25    16    17 ar  
    26    16    30 ar  
    27    16    38 1   
    28    17    18 ar  
    29    17    20 1   
    30    18    19 ar  
    31    18    39 1   
    32    19    29 ar  
    33    19    40 1   
    34    21    22 ar  
    35    21    26 ar  
    36    22    23 ar  
    37    22    41 1   
    38    23    24 ar  
    39    23    31 1   
    40    24    25 ar  
    41    24    42 1   
    42    25    26 ar  
    43    25    43 1   
    44    26    27 1   
    45    28    29 1   
    46    28    44 1   
    47    28    45 1   
    48    29    30 ar  
    49    30    46 1   
@<TRIPOS>SUBSTRUCTURE
     1 OE7         1 TEMP              0 ****  ****    0 ROOT
