@<TRIPOS>MOLECULE
OE8
   81    85     1     0     0
SMALL
bcc


@<TRIPOS>ATOM
      1 N1           7.3110    -0.0220    -1.8350 nc         1 OE8      -0.512800
      2 C3           8.4310    -0.6190     0.1940 ca         1 OE8       0.006800
      3 N2           7.4230     0.0980    -0.4870 na         1 OE8       0.120300
      4 C4           8.6580    -1.9500    -0.1370 ca         1 OE8      -0.125000
      5 C8           9.2000     0.0060     1.1690 ca         1 OE8      -0.125000
      6 C7          10.1860    -0.7150     1.8290 ca         1 OE8      -0.119500
      7 C6          10.4180    -2.0440     1.5050 ca         1 OE8      -0.125000
      8 C5           9.6570    -2.6550     0.5160 ca         1 OE8      -0.119500
      9 C10          2.7850     3.4270    -2.1350 c3         1 OE8       0.147300
     10 C12          0.2940     3.4760    -2.3230 ca         1 OE8      -0.131000
     11 C13         -0.9600     2.9040    -2.2250 ca         1 OE8      -0.085000
     12 C14         -1.1000     1.5850    -1.7960 ca         1 OE8      -0.150600
     13 C15          0.0430     0.8500    -1.4970 ca         1 OE8      -0.085000
     14 C16          1.3020     1.4240    -1.6140 ca         1 OE8      -0.131000
     15 C17         -2.4690     1.0030    -1.7190 c          1 OE8       0.681700
     16 C22         -2.3630    -3.5970     2.3540 c6         1 OE8      -0.071400
     17 C23         -2.3120    -4.7700     3.3290 c6         1 OE8      -0.072900
     18 C24         -1.5400    -5.9480     2.7450 c6         1 OE8      -0.074400
     19 C32         -8.6980     2.6300     0.8000 ca         1 OE8      -0.142500
     20 C31         -9.7900     2.2920     0.0290 ca         1 OE8       0.106900
     21 C30         -9.7090     1.3160    -0.9450 ca         1 OE8      -0.142500
     22 C28         -7.3760     0.9950    -0.3810 ca         1 OE8       0.061600
     23 C26         -2.1670    -5.1910     0.4260 c6         1 OE8      -0.071400
     24 C25         -2.1170    -6.3660     1.3970 c6         1 OE8      -0.072900
     25 C18         -3.9460    -0.5800    -0.6330 c3         1 OE8       0.036700
     26 C29         -8.5000     0.6730    -1.1450 ca         1 OE8      -0.142000
     27 C33         -7.4860     1.9830     0.5980 ca         1 OE8      -0.142000
     28 C27         -4.9550     0.4720    -0.1650 c          1 OE8       0.663100
     29 O2          -4.6400     1.3460     0.6190 o          1 OE8      -0.575100
     30 C19         -3.8690    -1.6940     0.4120 c3         1 OE8      -0.089400
     31 C21         -2.9420    -4.0020     0.9970 c6         1 OE8      -0.061700
     32 N4          -2.6510     0.0210    -0.8160 ns         1 OE8      -0.553900
     33 O1          -3.3770     1.3910    -2.4410 o          1 OE8      -0.600100
     34 C11          1.4420     2.7440    -2.0190 ca         1 OE8      -0.076300
     35 N3           3.9230     2.5510    -2.0770 ns         1 OE8      -0.569900
     36 O            4.1790     2.6730     0.1620 o          1 OE8      -0.644100
     37 C1           5.7090     1.3550    -1.0390 cd         1 OE8      -0.439900
     38 C2           6.2980     0.7310    -2.1630 cd         1 OE8       0.367200
     39 C            6.4740     0.9050     0.0380 cc         1 OE8       0.240300
     40 N            6.3790     1.1960     1.3570 nv         1 OE8      -0.817200
     41 H1           8.0590    -2.4280    -0.9000 ha         1 OE8       0.153500
     42 H2           9.0470     1.0500     1.4060 ha         1 OE8       0.153500
     43 H3          10.7810    -0.2270     2.5880 ha         1 OE8       0.138000
     44 H4          11.1910    -2.6020     2.0160 ha         1 OE8       0.137000
     45 H5           9.8340    -3.6910     0.2560 ha         1 OE8       0.138000
     46 H6           2.8270     3.9720    -3.0800 h1         1 OE8       0.066200
     47 H7           2.8710     4.1760    -1.3470 h1         1 OE8       0.066200
     48 H8           0.3860     4.5070    -2.6460 ha         1 OE8       0.136500
     49 H9          -1.8380     3.4860    -2.4750 ha         1 OE8       0.141500
     50 H10         -0.0300    -0.1880    -1.1980 ha         1 OE8       0.141500
     51 H11          2.1750     0.8210    -1.4020 ha         1 OE8       0.136500
     52 H14         -2.9460    -2.7840     2.7930 hc         1 OE8       0.038200
     53 H15         -1.3490    -3.2040     2.2040 hc         1 OE8       0.038200
     54 H16         -1.8610    -4.4520     4.2730 hc         1 OE8       0.039450
     55 H17         -3.3330    -5.0880     3.5660 hc         1 OE8       0.039450
     56 H18         -0.4900    -5.6610     2.6150 hc         1 OE8       0.038700
     57 H19         -1.5480    -6.7900     3.4410 hc         1 OE8       0.038700
     58 H20         -8.7790     3.3950     1.5600 ha         1 OE8       0.150000
     59 H21        -10.5730     1.0590    -1.5450 ha         1 OE8       0.150000
     60 H22         -1.1450    -4.8700     0.1920 hc         1 OE8       0.038200
     61 H23         -2.6190    -5.5010    -0.5200 hc         1 OE8       0.038200
     62 H24         -1.5300    -7.1820     0.9690 hc         1 OE8       0.039450
     63 H25         -3.1300    -6.7580     1.5440 hc         1 OE8       0.039450
     64 H26         -4.2740    -1.0120    -1.5840 h1         1 OE8       0.071700
     65 H27         -8.4330    -0.0930    -1.9080 ha         1 OE8       0.150000
     66 H28         -6.6430     2.2580     1.2090 ha         1 OE8       0.150000
     67 H30         -4.8790    -2.0770     0.5770 hc         1 OE8       0.058200
     68 H31         -3.5440    -1.2600     1.3630 hc         1 OE8       0.058200
     69 H32         -3.9800    -4.3280     1.1560 hc         1 OE8       0.046700
     70 H33         -1.9610    -0.1170    -0.0940 hn         1 OE8       0.327500
     71 H34          4.2430     2.1540    -2.9440 hn         1 OE8       0.315500
     72 H35          6.0120     0.8110    -3.2010 h4         1 OE8       0.034100
     73 H36          6.6960     0.5000     2.0140 hn         1 OE8       0.434300
     74 H37          5.5110     1.6400     1.6150 hn         1 OE8       0.434300
     75 C9           4.5560     2.2370    -0.9260 c          1 OE8       0.731700
     76 C20         -2.9600    -2.8460    -0.0020 c3         1 OE8      -0.071400
     77 N5          -6.2020     0.2810    -0.6520 ns         1 OE8      -0.462100
     78 F          -10.9580     2.9250     0.2290 f          1 OE8      -0.144900
     79 H12         -3.2940    -3.2240    -0.9750 hc         1 OE8       0.042700
     80 H13         -1.9350    -2.4900    -0.1520 hc         1 OE8       0.042700
     81 H29         -6.3020    -0.4490    -1.3410 hn         1 OE8       0.319500
@<TRIPOS>BOND
     1     1     3 1   
     2     1    38 2   
     3     2     3 1   
     4     2     4 ar  
     5     2     5 ar  
     6     3    39 1   
     7     4     8 ar  
     8     4    41 1   
     9     5     6 ar  
    10     5    42 1   
    11     6     7 ar  
    12     6    43 1   
    13     7     8 ar  
    14     7    44 1   
    15     8    45 1   
    16     9    34 1   
    17     9    35 1   
    18     9    46 1   
    19     9    47 1   
    20    10    11 ar  
    21    10    34 ar  
    22    10    48 1   
    23    11    12 ar  
    24    11    49 1   
    25    12    13 ar  
    26    12    15 1   
    27    13    14 ar  
    28    13    50 1   
    29    14    34 ar  
    30    14    51 1   
    31    15    32 1   
    32    15    33 2   
    33    16    17 1   
    34    16    31 1   
    35    16    52 1   
    36    16    53 1   
    37    17    18 1   
    38    17    54 1   
    39    17    55 1   
    40    18    24 1   
    41    18    56 1   
    42    18    57 1   
    43    19    20 ar  
    44    19    27 ar  
    45    19    58 1   
    46    20    21 ar  
    47    20    78 1   
    48    21    26 ar  
    49    21    59 1   
    50    22    26 ar  
    51    22    27 ar  
    52    22    77 1   
    53    23    24 1   
    54    23    31 1   
    55    23    60 1   
    56    23    61 1   
    57    24    62 1   
    58    24    63 1   
    59    25    28 1   
    60    25    30 1   
    61    25    32 1   
    62    25    64 1   
    63    26    65 1   
    64    27    66 1   
    65    28    29 2   
    66    28    77 1   
    67    30    67 1   
    68    30    68 1   
    69    30    76 1   
    70    31    69 1   
    71    31    76 1   
    72    32    70 1   
    73    35    71 1   
    74    35    75 1   
    75    36    75 2   
    76    37    38 1   
    77    37    39 2   
    78    37    75 1   
    79    38    72 1   
    80    39    40 1   
    81    40    73 1   
    82    40    74 1   
    83    76    79 1   
    84    76    80 1   
    85    77    81 1   
@<TRIPOS>SUBSTRUCTURE
     1 OE8         1 TEMP              0 ****  ****    0 ROOT
