@<TRIPOS>MOLECULE
OE8
   81    85     1     0     0
SMALL
No Charge or Current Charge


@<TRIPOS>ATOM
      1 N1           7.1600    -0.5490    -1.1890 nc         1 OE8      -0.512800
      2 C3           8.2820    -0.4500     0.9300 ca         1 OE8       0.006800
      3 N2           7.3130     0.0360     0.0460 na         1 OE8       0.171000
      4 C4           8.2250    -1.7870     1.3780 ca         1 OE8      -0.107000
      5 C8           9.3300     0.3820     1.3750 ca         1 OE8      -0.107000
      6 C7          10.3030    -0.1130     2.2610 ca         1 OE8      -0.101500
      7 C6          10.2360    -1.4440     2.7070 ca         1 OE8      -0.107000
      8 C5           9.1980    -2.2810     2.2640 ca         1 OE8      -0.101500
      9 C10          3.0670     2.9940    -2.8310 c3         1 OE8       0.147300
     10 C12          1.1710     1.5470    -3.7120 ca         1 OE8      -0.113000
     11 C13         -0.0740     0.9150    -3.5560 ca         1 OE8      -0.067000
     12 C14         -0.8040     1.0350    -2.3510 ca         1 OE8      -0.150600
     13 C15         -0.2460     1.8070    -1.3020 ca         1 OE8      -0.067000
     14 C16          1.0000     2.4380    -1.4630 ca         1 OE8      -0.113000
     15 C17         -2.1420     0.3360    -2.2200 c          1 OE8       0.614700
     16 C22         -2.3320    -3.8280     1.4980 c6         1 OE8      -0.071400
     17 C23         -2.2600    -5.2130     2.1890 c6         1 OE8      -0.072900
     18 C24         -1.5950    -6.2670     1.2720 c6         1 OE8      -0.074400
     19 C32         -8.5800     2.8940     2.0980 ca         1 OE8      -0.124500
     20 C31         -9.8090     2.2350     1.9470 ca         1 OE8       0.142000
     21 C30         -9.8810     1.0350     1.2250 ca         1 OE8      -0.124500
     22 C28         -7.4750     1.1440     0.7910 ca         1 OE8      -0.031000
     23 C26         -2.3940    -4.9760    -0.7810 c6         1 OE8      -0.071400
     24 C25         -2.3280    -6.3590    -0.0870 c6         1 OE8      -0.072900
     25 C18         -4.1160    -0.1120    -0.6770 c3         1 OE8       0.036700
     26 C29         -8.7180     0.4930     0.6500 ca         1 OE8      -0.124000
     27 C33         -7.4150     2.3530     1.5230 ca         1 OE8      -0.124000
     28 C27         -5.0060     0.9090     0.0930 c          1 OE8       0.596100
     29 O2          -4.5500     1.9480     0.5640 o          1 OE8      -0.575100
     30 C19         -3.9160    -1.4190     0.1410 c3         1 OE8      -0.089400
     31 C21         -3.0670    -3.9070     0.1270 c6         1 OE8      -0.061700
     32 N4          -2.8130     0.5040    -1.0260 ns         1 OE8      -0.486900
     33 O1          -2.6130    -0.3420    -3.1230 o          1 OE8      -0.600100
     34 C11          1.7150     2.3140    -2.6670 ca         1 OE8      -0.076300
     35 N3           4.1530     2.1460    -2.3370 ns         1 OE8      -0.502900
     36 O            4.3880     3.1100    -0.2870 o          1 OE8      -0.644100
     37 C1           5.7650     1.2470    -0.8460 cd         1 OE8      -0.374600
     38 C2           6.2080     0.2090    -1.7070 cd         1 OE8       0.301900
     39 C            6.4910     1.1400     0.2960 cc         1 OE8       0.328000
     40 N            6.4630     1.8750     1.4500 nv         1 OE8      -1.066000
     41 H1           7.4250    -2.4410     1.0380 ha         1 OE8       0.135500
     42 H2           9.3920     1.4130     1.0290 ha         1 OE8       0.135500
     43 H3          11.1090     0.5350     2.6010 ha         1 OE8       0.120000
     44 H4          10.9890    -1.8260     3.3930 ha         1 OE8       0.119000
     45 H5           9.1480    -3.3120     2.6070 ha         1 OE8       0.120000
     46 H6           3.2450     3.2090    -3.8930 h1         1 OE8       0.066200
     47 H7           3.0680     3.9540    -2.2980 h1         1 OE8       0.066200
     48 H8           1.7140     1.4380    -4.6480 ha         1 OE8       0.118500
     49 H9          -0.4710     0.3280    -4.3820 ha         1 OE8       0.123500
     50 H10         -0.7610     1.9290    -0.3530 ha         1 OE8       0.123500
     51 H11          1.4130     3.0230    -0.6440 ha         1 OE8       0.118500
     52 H14         -2.8460    -3.1280     2.1690 hc         1 OE8       0.038200
     53 H15         -1.3160    -3.4350     1.3550 hc         1 OE8       0.038200
     54 H16         -1.6980    -5.1300     3.1290 hc         1 OE8       0.039450
     55 H17         -3.2720    -5.5440     2.4590 hc         1 OE8       0.039450
     56 H18         -0.5410    -6.0030     1.1080 hc         1 OE8       0.038700
     57 H19         -1.5990    -7.2480     1.7660 hc         1 OE8       0.038700
     58 H20         -8.5310     3.8230     2.6600 ha         1 OE8       0.132000
     59 H21        -10.8360     0.5280     1.1110 ha         1 OE8       0.132000
     60 H22         -1.3790    -4.6520    -1.0490 hc         1 OE8       0.038200
     61 H23         -2.9490    -5.0700    -1.7250 hc         1 OE8       0.038200
     62 H24         -1.8140    -7.0790    -0.7390 hc         1 OE8       0.039450
     63 H25         -3.3450    -6.7470     0.0650 hc         1 OE8       0.039450
     64 H26         -4.6530    -0.3560    -1.6030 h1         1 OE8       0.071700
     65 H27         -8.7850    -0.4390     0.0910 ha         1 OE8       0.132000
     66 H28         -6.4800     2.8870     1.6620 ha         1 OE8       0.132000
     67 H30         -4.8970    -1.8200     0.4220 hc         1 OE8       0.058200
     68 H31         -3.4000    -1.1690     1.0760 hc         1 OE8       0.058200
     69 H32         -4.1080    -4.2150     0.3050 hc         1 OE8       0.046700
     70 H33         -2.3820     1.1170    -0.3450 hn         1 OE8       0.327500
     71 H34          4.4910     1.4050    -2.9350 hn         1 OE8       0.315500
     72 H35          5.8570    -0.0180    -2.7060 h4         1 OE8       0.034100
     73 H36          6.8950     1.5060     2.2950 hn         1 OE8       0.489500
     74 H37          5.7150     2.5590     1.5620 hn         1 OE8       0.489500
     75 C9           4.7250     2.2550    -1.0940 c          1 OE8       0.664700
     76 C20         -3.1310    -2.5300    -0.6030 c3         1 OE8      -0.071400
     77 N5          -6.3430     0.5330     0.1820 ns         1 OE8      -0.136000
     78 F          -10.9250     2.7570     2.5000 f          1 OE8      -0.180000
     79 H12         -3.5970    -2.6700    -1.5870 hc         1 OE8       0.042700
     80 H13         -2.1110    -2.1770    -0.7960 hc         1 OE8       0.042700
     81 H29         -6.5520    -0.3470    -0.2700 hn         1 OE8       0.153000
@<TRIPOS>BOND
     1     1     3 1   
     2     1    38 2   
     3     2     3 1   
     4     2     4 ar  
     5     2     5 ar  
     6     3    39 1   
     7     4     8 ar  
     8     4    41 1   
     9     5     6 ar  
    10     5    42 1   
    11     6     7 ar  
    12     6    43 1   
    13     7     8 ar  
    14     7    44 1   
    15     8    45 1   
    16     9    34 1   
    17     9    35 1   
    18     9    46 1   
    19     9    47 1   
    20    10    11 ar  
    21    10    34 ar  
    22    10    48 1   
    23    11    12 ar  
    24    11    49 1   
    25    12    13 ar  
    26    12    15 1   
    27    13    14 ar  
    28    13    50 1   
    29    14    34 ar  
    30    14    51 1   
    31    15    32 1   
    32    15    33 2   
    33    16    17 1   
    34    16    31 1   
    35    16    52 1   
    36    16    53 1   
    37    17    18 1   
    38    17    54 1   
    39    17    55 1   
    40    18    24 1   
    41    18    56 1   
    42    18    57 1   
    43    19    20 ar  
    44    19    27 ar  
    45    19    58 1   
    46    20    21 ar  
    47    20    78 1   
    48    21    26 ar  
    49    21    59 1   
    50    22    26 ar  
    51    22    27 ar  
    52    22    77 1   
    53    23    24 1   
    54    23    31 1   
    55    23    60 1   
    56    23    61 1   
    57    24    62 1   
    58    24    63 1   
    59    25    28 1   
    60    25    30 1   
    61    25    32 1   
    62    25    64 1   
    63    26    65 1   
    64    27    66 1   
    65    28    29 2   
    66    28    77 1   
    67    30    67 1   
    68    30    68 1   
    69    30    76 1   
    70    31    69 1   
    71    31    76 1   
    72    32    70 1   
    73    35    71 1   
    74    35    75 1   
    75    36    75 2   
    76    37    38 1   
    77    37    39 2   
    78    37    75 1   
    79    38    72 1   
    80    39    40 1   
    81    40    73 1   
    82    40    74 1   
    83    76    79 1   
    84    76    80 1   
    85    77    81 1   
@<TRIPOS>SUBSTRUCTURE
     1 OE8         1 TEMP              0 ****  ****    0 ROOT
