@<TRIPOS>MOLECULE
OEA
   50    53     1     0     0
SMALL
abcg2


@<TRIPOS>ATOM
      1 C13         -1.5390    -2.1230    -1.3410 ca         1 OEA      -0.121500
      2 C12         -0.2580    -2.2290    -0.8300 ca         1 OEA      -0.069000
      3 C11          0.5310    -1.0930    -0.6500 ca         1 OEA      -0.135600
      4 C10         -0.0060     0.1490    -0.9780 ca         1 OEA      -0.069000
      5 C14          1.9000    -1.2690    -0.0730 c          1 OEA       0.613700
      6 C15          4.0780    -0.0890     0.0710 ca         1 OEA       0.038000
      7 C3          -4.9370     0.0180    -0.1620 cc         1 OEA      -0.291600
      8 C4          -4.6800     1.4030     0.0340 c          1 OEA       0.622600
      9 C5          -4.5060    -0.9550    -1.1190 cc         1 OEA      -0.047300
     10 C6          -5.1660    -2.1060    -0.8030 cd         1 OEA      -0.207000
     11 C2          -5.8450    -0.6060     0.6960 cd         1 OEA       0.157400
     12 C1          -6.2350     1.2030     1.9280 cc         1 OEA       0.721800
     13 C16          4.7270    -0.9590     0.9440 ca         1 OEA      -0.211000
     14 C17          6.0420    -0.7180     1.3380 ca         1 OEA       0.136100
     15 C18          6.7240     0.3960     0.8600 ca         1 OEA      -0.256000
     16 C19          6.0640     1.2530    -0.0060 ca         1 OEA      -0.033000
     17 C20          4.7560     1.0540    -0.4220 ca         1 OEA      -0.226600
     18 C8          -2.0790    -0.8820    -1.6740 ca         1 OEA      -0.074300
     19 C9          -1.2960     0.2500    -1.4800 ca         1 OEA      -0.121500
     20 N1          -5.3800     1.9100     1.1330 ns         1 OEA      -0.455400
     21 N2          -6.5000    -0.0600     1.7400 nd         1 OEA      -0.719100
     22 N3          -5.9700    -1.8850     0.2960 na         1 OEA      -0.109000
     23 N4          -6.8500     1.8870     2.9130 nv         1 OEA      -1.041200
     24 N5           2.7650    -0.2710    -0.3510 ns         1 OEA      -0.161000
     25 O2           2.1680    -2.2640     0.5880 o          1 OEA      -0.641100
     26 O5           6.5680    -1.6220     2.1850 os         1 OEA      -0.352100
     27 H1          -2.1300    -3.0200    -1.4820 ha         1 OEA       0.111500
     28 H2           0.1360    -3.2040    -0.5770 ha         1 OEA       0.137500
     29 H3           0.5610     1.0590    -0.8290 ha         1 OEA       0.137500
     30 H4          -5.1270    -3.0760    -1.2710 h4         1 OEA       0.147000
     31 H5           4.2240    -1.8320     1.3260 ha         1 OEA       0.145000
     32 H6           7.7450     0.6100     1.1450 ha         1 OEA       0.095000
     33 H7           6.5910     2.1210    -0.3790 ha         1 OEA       0.127000
     34 H8           8.6080    -1.4600     1.7860 h1         1 OEA       0.026700
     35 H9           8.0300    -0.5100     3.1720 h1         1 OEA       0.026700
     36 H10          8.1240    -2.2760     3.2830 h1         1 OEA       0.026700
     37 H11         -3.6420    -1.5590    -2.9590 hc         1 OEA       0.054200
     38 H12         -3.6260     0.1760    -2.7030 hc         1 OEA       0.054200
     39 H13         -1.7010     1.2260    -1.7100 ha         1 OEA       0.111500
     40 H14         -5.2420     2.8940     1.3270 hn         1 OEA       0.319500
     41 H15         -6.5770    -2.5680     0.7210 hn         1 OEA       0.352000
     42 H16         -6.4550     2.7530     3.2410 hn         1 OEA       0.488500
     43 H17         -7.3270     1.3410     3.6110 hn         1 OEA       0.488500
     44 H18          2.5070     0.4950    -1.0070 hn         1 OEA       0.236000
     45 C7          -3.4890    -0.7840    -2.2040 c3         1 OEA       0.041200
     46 C21          4.1370     2.0680    -1.3680 c          1 OEA       0.726600
     47 O1          -3.9650     2.1480    -0.6230 o          1 OEA      -0.538000
     48 C22          7.9020    -1.4440     2.6190 c3         1 OEA       0.158900
     49 O3           4.8340     3.0330    -1.7090 o          1 OEA      -0.710000
     50 O4           2.9510     1.8630    -1.7510 o          1 OEA      -0.710000
@<TRIPOS>BOND
     1     1     2 ar  
     2     1    18 ar  
     3     1    27 1   
     4     2     3 ar  
     5     2    28 1   
     6     3     4 ar  
     7     3     5 1   
     8     4    19 ar  
     9     4    29 1   
    10     5    24 1   
    11     5    25 2   
    12     6    13 ar  
    13     6    17 ar  
    14     6    24 1   
    15     7     8 1   
    16     7     9 1   
    17     7    11 2   
    18     8    20 1   
    19     8    47 2   
    20     9    10 2   
    21     9    45 1   
    22    10    22 1   
    23    10    30 1   
    24    11    21 1   
    25    11    22 1   
    26    12    20 1   
    27    12    21 2   
    28    12    23 1   
    29    13    14 ar  
    30    13    31 1   
    31    14    15 ar  
    32    14    26 1   
    33    15    16 ar  
    34    15    32 1   
    35    16    17 ar  
    36    16    33 1   
    37    17    46 1   
    38    18    19 ar  
    39    18    45 1   
    40    19    39 1   
    41    20    40 1   
    42    22    41 1   
    43    23    42 1   
    44    23    43 1   
    45    24    44 1   
    46    26    48 1   
    47    34    48 1   
    48    35    48 1   
    49    36    48 1   
    50    37    45 1   
    51    38    45 1   
    52    46    49 1   
    53    46    50 1   
@<TRIPOS>SUBSTRUCTURE
     1 OEA         1 TEMP              0 ****  ****    0 ROOT
