@<TRIPOS>MOLECULE
OEA
   50    53     1     0     0
SMALL
No Charge or Current Charge


@<TRIPOS>ATOM
      1 C13         -1.6970    -2.0750    -1.2360 ca         1 OEA      -0.121500
      2 C12         -0.3750    -2.2330    -0.7880 ca         1 OEA      -0.069000
      3 C11          0.5220    -1.1390    -0.7680 ca         1 OEA      -0.135600
      4 C10          0.0480     0.1220    -1.2100 ca         1 OEA      -0.069000
      5 C14          1.9450    -1.3510    -0.2750 c          1 OEA       0.613700
      6 C15          4.1270    -0.0330     0.0770 ca         1 OEA       0.038000
      7 C3          -5.0750    -0.0410    -0.0990 cc         1 OEA      -0.291600
      8 C4          -4.7050     1.3610     0.1160 c          1 OEA       0.622600
      9 C5          -4.6180    -0.9570    -1.0860 cc         1 OEA      -0.047300
     10 C6          -5.2640    -2.1540    -0.8710 cd         1 OEA      -0.207000
     11 C2          -5.9790    -0.6780     0.6930 cd         1 OEA       0.157400
     12 C1          -6.2470     1.1870     1.9170 cc         1 OEA       0.721800
     13 C16          4.7610    -0.8870     1.0050 ca         1 OEA      -0.211000
     14 C17          6.0850    -0.6700     1.4060 ca         1 OEA       0.136100
     15 C18          6.8000     0.4200     0.8790 ca         1 OEA      -0.256000
     16 C19          6.1810     1.2860    -0.0350 ca         1 OEA      -0.033000
     17 C20          4.8440     1.0790    -0.4400 ca         1 OEA      -0.226600
     18 C8          -2.1590    -0.8210    -1.6710 ca         1 OEA      -0.074300
     19 C9          -1.2760     0.2730    -1.6560 ca         1 OEA      -0.121500
     20 N1          -5.3630     1.8820     1.1740 ns         1 OEA      -0.455400
     21 N2          -6.6160    -0.0640     1.7620 nd         1 OEA      -0.719100
     22 N3          -6.1110    -1.9790     0.2360 na         1 OEA      -0.109000
     23 N4          -6.8040     1.8420     2.9200 nv         1 OEA      -1.041200
     24 N5           2.7820    -0.2460    -0.3360 ns         1 OEA      -0.161000
     25 O2           2.3140    -2.4480     0.1350 o          1 OEA      -0.641100
     26 O5           6.6360    -1.5480     2.3160 os         1 OEA      -0.352100
     27 H1          -2.3660    -2.9330    -1.2420 ha         1 OEA       0.111500
     28 H2          -0.0490    -3.2170    -0.4560 ha         1 OEA       0.137500
     29 H3           0.6870     1.0000    -1.2120 ha         1 OEA       0.137500
     30 H4          -5.1870    -3.0950    -1.4050 h4         1 OEA       0.147000
     31 H5           4.2320    -1.7270     1.4430 ha         1 OEA       0.145000
     32 H6           7.8280     0.6170     1.1680 ha         1 OEA       0.095000
     33 H7           6.7450     2.1320    -0.4260 ha         1 OEA       0.127000
     34 H8           8.7010    -1.4790     1.9620 h1         1 OEA       0.026700
     35 H9           8.1250    -0.4500     3.3020 h1         1 OEA       0.026700
     36 H10          8.2190    -2.2120     3.5060 h1         1 OEA       0.026700
     37 H11         -3.7630    -1.3370    -3.0040 hc         1 OEA       0.054200
     38 H12         -3.7610     0.3450    -2.5640 hc         1 OEA       0.054200
     39 H13         -1.6160     1.2510    -1.9900 ha         1 OEA       0.111500
     40 H14         -5.1900     2.8500     1.3840 hn         1 OEA       0.319500
     41 H15         -6.7210    -2.6770     0.6440 hn         1 OEA       0.352000
     42 H16         -6.2470     2.5690     3.3520 hn         1 OEA       0.488500
     43 H17         -7.3120     1.2480     3.5620 hn         1 OEA       0.488500
     44 H18          2.3630     0.5770    -0.7510 hn         1 OEA       0.236000
     45 C7          -3.5960    -0.6590    -2.1580 c3         1 OEA       0.041200
     46 C21          4.2300     2.0500    -1.4280 c          1 OEA       0.726600
     47 O1          -3.9190     2.0170    -0.5470 o          1 OEA      -0.538000
     48 C22          7.9860    -1.4130     2.7920 c3         1 OEA       0.158900
     49 O3           4.9580     2.5480    -2.2730 o          1 OEA      -0.710000
     50 O4           3.0410     2.3140    -1.3290 o          1 OEA      -0.710000
@<TRIPOS>BOND
     1     1     2 ar  
     2     1    18 ar  
     3     1    27 1   
     4     2     3 ar  
     5     2    28 1   
     6     3     4 ar  
     7     3     5 1   
     8     4    19 ar  
     9     4    29 1   
    10     5    24 1   
    11     5    25 2   
    12     6    13 ar  
    13     6    17 ar  
    14     6    24 1   
    15     7     8 1   
    16     7     9 1   
    17     7    11 2   
    18     8    20 1   
    19     8    47 2   
    20     9    10 2   
    21     9    45 1   
    22    10    22 1   
    23    10    30 1   
    24    11    21 1   
    25    11    22 1   
    26    12    20 1   
    27    12    21 2   
    28    12    23 1   
    29    13    14 ar  
    30    13    31 1   
    31    14    15 ar  
    32    14    26 1   
    33    15    16 ar  
    34    15    32 1   
    35    16    17 ar  
    36    16    33 1   
    37    17    46 1   
    38    18    19 ar  
    39    18    45 1   
    40    19    39 1   
    41    20    40 1   
    42    22    41 1   
    43    23    42 1   
    44    23    43 1   
    45    24    44 1   
    46    26    48 1   
    47    34    48 1   
    48    35    48 1   
    49    36    48 1   
    50    37    45 1   
    51    38    45 1   
    52    46    49 1   
    53    46    50 1   
@<TRIPOS>SUBSTRUCTURE
     1 OEA         1 TEMP              0 ****  ****    0 ROOT
