@<TRIPOS>MOLECULE
OEB
   83    87     1     0     0
SMALL
No Charge or Current Charge


@<TRIPOS>ATOM
      1 C1          -4.3060    -0.4820     1.1340 c3         1 OEB       0.036700
      2 C2          -5.1910    -1.3940     0.2350 c          1 OEB       0.588100
      3 C3          -7.5480    -1.7840    -0.5550 c3         1 OEB       0.150300
      4 C4          -7.7110    -1.1200    -1.9140 ca         1 OEB      -0.054300
      5 C5          -8.5840    -0.0320    -2.0940 ca         1 OEB      -0.154000
      6 C6          -8.6970     0.5590    -3.3650 ca         1 OEB       0.335400
      7 C7          -7.1550    -0.9150    -4.2690 ca         1 OEB       0.335400
      8 C8          -6.9830    -1.5620    -3.0340 ca         1 OEB      -0.154000
      9 C9          -4.2120     0.9560     0.5510 c3         1 OEB      -0.087400
     10 C10         -3.4360     1.9630     1.4370 c3         1 OEB      -0.071400
     11 C11         -3.4790     3.4470     0.9590 c6         1 OEB      -0.061700
     12 O1          -4.7380    -2.3090    -0.4420 o          1 OEB      -0.583100
     13 O2           4.2510    -3.1410    -0.2710 o          1 OEB      -0.640100
     14 C12         -2.8270     3.6460    -0.4420 c6         1 OEB      -0.071900
     15 C13         -2.8600     5.1310    -0.8820 c6         1 OEB      -0.072900
     16 C24          4.6210    -2.4420     0.6600 c          1 OEB       0.663700
     17 C25          5.6120    -1.3700     0.5350 cc         1 OEB      -0.373600
     18 C33          6.0700    -0.5140     1.5610 cc         1 OEB       0.300900
     19 N6           6.9650     0.3830     1.1830 nd         1 OEB      -0.514800
     20 N5           7.0780     0.0660    -0.1580 na         1 OEB       0.170000
     21 C27          7.8850     0.7060    -1.1000 ca         1 OEB       0.007800
     22 C32          7.4410     1.8880    -1.7260 ca         1 OEB      -0.107500
     23 C31          8.2540     2.5340    -2.6740 ca         1 OEB      -0.101500
     24 C30          9.5140     2.0040    -2.9990 ca         1 OEB      -0.107000
     25 C29          9.9640     0.8270    -2.3740 ca         1 OEB      -0.101500
     26 C28          9.1520     0.1800    -1.4250 ca         1 OEB      -0.107500
     27 C26          6.2640    -0.9980    -0.5900 cd         1 OEB       0.329000
     28 N4           6.1970    -1.4920    -1.8660 nv         1 OEB      -1.065000
     29 N3           4.1300    -2.5980     1.9330 ns         1 OEB      -0.504900
     30 C22          1.7220    -2.9330     2.3480 ca         1 OEB      -0.069300
     31 C19          0.9370    -2.8850     1.1830 ca         1 OEB      -0.111500
     32 C18         -0.3390    -2.2950     1.2040 ca         1 OEB      -0.067500
     33 C21          1.2190    -2.3780     3.5380 ca         1 OEB      -0.111500
     34 C20         -0.0550    -1.7870     3.5630 ca         1 OEB      -0.067500
     35 C17         -0.8550    -1.7360     2.3990 ca         1 OEB      -0.148600
     36 O           -2.6600    -0.5920     3.4960 o          1 OEB      -0.604100
     37 N           -2.9620    -1.0830     1.3000 ns         1 OEB      -0.485900
     38 C16         -2.8010     4.3780     2.0030 c6         1 OEB      -0.071900
     39 C15         -2.8390     5.8620     1.5600 c6         1 OEB      -0.072900
     40 C14         -2.1880     6.0460     0.1690 c6         1 OEB      -0.074400
     41 N1          -6.5380    -1.1000     0.2530 ns         1 OEB      -0.504900
     42 N2          -7.9980     0.1310    -4.4420 nb         1 OEB      -0.665000
     43 H1          -4.7990    -0.4350     2.1140 h1         1 OEB       0.070700
     44 H2          -8.5050    -1.7590    -0.0170 h1         1 OEB       0.062700
     45 H3          -7.2690    -2.8380    -0.6830 h1         1 OEB       0.062700
     46 H4          -9.1680     0.3570    -1.2650 ha         1 OEB       0.120000
     47 H5          -9.3670     1.4020    -3.5260 h4         1 OEB       0.017100
     48 H6          -6.6010    -1.2410    -5.1480 h4         1 OEB       0.017100
     49 H7          -6.2890    -2.3940    -2.9540 ha         1 OEB       0.120000
     50 H8          -3.7420     0.8990    -0.4380 hc         1 OEB       0.055700
     51 H9          -5.2260     1.3440     0.3940 hc         1 OEB       0.055700
     52 H10         -3.8480     1.9040     2.4530 hc         1 OEB       0.042700
     53 H11         -2.3910     1.6390     1.5130 hc         1 OEB       0.042700
     54 H12         -4.5410     3.7220     0.8920 hc         1 OEB       0.043700
     55 H13         -1.7880     3.2900    -0.4240 hc         1 OEB       0.038700
     56 H14         -3.3500     3.0450    -1.1980 hc         1 OEB       0.038700
     57 H15         -2.3540     5.2430    -1.8510 hc         1 OEB       0.038950
     58 H16         -3.9010     5.4470    -1.0370 hc         1 OEB       0.038950
     59 H17          5.7660    -0.5150     2.6000 h4         1 OEB       0.032100
     60 H18          6.4670     2.3030    -1.4760 ha         1 OEB       0.135500
     61 H19          7.9070     3.4460    -3.1560 ha         1 OEB       0.120000
     62 H20         10.1430     2.5040    -3.7320 ha         1 OEB       0.119000
     63 H21         10.9400     0.4180    -2.6240 ha         1 OEB       0.120000
     64 H22          9.5040    -0.7290    -0.9430 ha         1 OEB       0.135500
     65 H23          6.6240    -0.9830    -2.6380 hn         1 OEB       0.490500
     66 H24          5.4810    -2.1850    -2.0860 hn         1 OEB       0.490500
     67 H25          4.4870    -1.9730     2.6430 hn         1 OEB       0.316500
     68 H26          3.1110    -4.4170     1.6200 h1         1 OEB       0.060200
     69 H27          3.3520    -3.9620     3.3130 h1         1 OEB       0.060200
     70 H28          1.3170    -3.3060     0.2550 ha         1 OEB       0.116000
     71 H29         -0.9090    -2.2790     0.2780 ha         1 OEB       0.122500
     72 H30          1.8160    -2.4030     4.4470 ha         1 OEB       0.116000
     73 H31         -0.4190    -1.3650     4.4980 ha         1 OEB       0.122500
     74 H32         -2.5550    -1.5540     0.5020 hn         1 OEB       0.326500
     75 H33         -3.3000     4.2770     2.9770 hc         1 OEB       0.038700
     76 H34         -1.7570     4.0700     2.1560 hc         1 OEB       0.038700
     77 H35         -3.8800     6.2130     1.5320 hc         1 OEB       0.038950
     78 H36         -2.3200     6.4850     2.3000 hc         1 OEB       0.038950
     79 H37         -1.1150     5.8170     0.2280 hc         1 OEB       0.039200
     80 H38         -2.2670     7.0960    -0.1450 hc         1 OEB       0.039200
     81 H39         -6.8340    -0.3310     0.8430 hn         1 OEB       0.319500
     82 C           -2.2240    -1.0860     2.4650 c          1 OEB       0.616700
     83 C23          3.1050    -3.5690     2.3180 c3         1 OEB       0.153300
@<TRIPOS>BOND
     1     1     2 1   
     2     1     9 1   
     3     1    37 1   
     4     1    43 1   
     5     2    12 2   
     6     2    41 1   
     7     3     4 1   
     8     3    41 1   
     9     3    44 1   
    10     3    45 1   
    11     4     5 ar  
    12     4     8 ar  
    13     5     6 ar  
    14     5    46 1   
    15     6    42 ar  
    16     6    47 1   
    17     7     8 ar  
    18     7    42 ar  
    19     7    48 1   
    20     8    49 1   
    21     9    10 1   
    22     9    50 1   
    23     9    51 1   
    24    10    11 1   
    25    10    52 1   
    26    10    53 1   
    27    11    14 1   
    28    11    38 1   
    29    11    54 1   
    30    13    16 2   
    31    14    15 1   
    32    14    55 1   
    33    14    56 1   
    34    15    40 1   
    35    15    57 1   
    36    15    58 1   
    37    16    17 1   
    38    16    29 1   
    39    17    18 1   
    40    17    27 2   
    41    18    19 2   
    42    18    59 1   
    43    19    20 1   
    44    20    21 1   
    45    20    27 1   
    46    21    22 ar  
    47    21    26 ar  
    48    22    23 ar  
    49    22    60 1   
    50    23    24 ar  
    51    23    61 1   
    52    24    25 ar  
    53    24    62 1   
    54    25    26 ar  
    55    25    63 1   
    56    26    64 1   
    57    27    28 1   
    58    28    65 1   
    59    28    66 1   
    60    29    67 1   
    61    29    83 1   
    62    30    31 ar  
    63    30    33 ar  
    64    30    83 1   
    65    31    32 ar  
    66    31    70 1   
    67    32    35 ar  
    68    32    71 1   
    69    33    34 ar  
    70    33    72 1   
    71    34    35 ar  
    72    34    73 1   
    73    35    82 1   
    74    36    82 2   
    75    37    74 1   
    76    37    82 1   
    77    38    39 1   
    78    38    75 1   
    79    38    76 1   
    80    39    40 1   
    81    39    77 1   
    82    39    78 1   
    83    40    79 1   
    84    40    80 1   
    85    41    81 1   
    86    68    83 1   
    87    69    83 1   
@<TRIPOS>SUBSTRUCTURE
     1 OEB         1 TEMP              0 ****  ****    0 ROOT
