@<TRIPOS>MOLECULE
OEB
   83    87     1     0     0
SMALL
bcc


@<TRIPOS>ATOM
      1 C1          -3.9620    -0.1230     1.0920 c3         1 OEB       0.036700
      2 C2          -4.7180    -1.1090     0.2010 c          1 OEB       0.655100
      3 C3          -6.9080    -1.9980    -0.3660 c3         1 OEB       0.150300
      4 C4          -7.1160    -1.4480    -1.7540 ca         1 OEB      -0.054300
      5 C5          -7.1560    -0.0830    -2.0090 ca         1 OEB      -0.237300
      6 C6          -7.3870     0.3540    -3.3030 ca         1 OEB       0.400700
      7 C7          -7.5460    -1.7660    -4.0880 ca         1 OEB       0.400700
      8 C8          -7.3180    -2.3030    -2.8300 ca         1 OEB      -0.237300
      9 C9          -3.9810     1.2610     0.4420 c3         1 OEB      -0.087400
     10 C10         -3.2810     2.3270     1.2810 c3         1 OEB      -0.071400
     11 C11         -3.6450     3.7550     0.8810 c6         1 OEB      -0.061700
     12 O1          -4.1710    -1.7150    -0.7040 o          1 OEB      -0.583100
     13 O2           3.9760    -2.9740     0.2710 o          1 OEB      -0.640100
     14 C12         -3.2890     4.0720    -0.5720 c6         1 OEB      -0.071900
     15 C13         -3.6280     5.5140    -0.9420 c6         1 OEB      -0.072900
     16 C24          4.5260    -2.2970     1.1410 c          1 OEB       0.730700
     17 C25          5.5830    -1.3490     0.8230 cc         1 OEB      -0.438900
     18 C33          6.3100    -0.4550     1.6420 cc         1 OEB       0.366200
     19 N6           7.1640     0.2580     0.9610 nd         1 OEB      -0.514800
     20 N5           7.0300    -0.1590    -0.3250 na         1 OEB       0.119300
     21 C27          7.8130     0.4410    -1.3340 ca         1 OEB       0.007800
     22 C32          7.9640     1.8230    -1.3430 ca         1 OEB      -0.125500
     23 C31          8.7470     2.4180    -2.3190 ca         1 OEB      -0.119500
     24 C30          9.3670     1.6440    -3.2930 ca         1 OEB      -0.125000
     25 C29          9.2110     0.2660    -3.2770 ca         1 OEB      -0.119500
     26 C28          8.4440    -0.3440    -2.2930 ca         1 OEB      -0.125500
     27 C26          6.0820    -1.1140    -0.4600 cd         1 OEB       0.241300
     28 N4           5.7680    -1.7030    -1.6370 nv         1 OEB      -0.816200
     29 N3           4.1770    -2.4030     2.4400 ns         1 OEB      -0.571900
     30 C22          1.7370    -2.8550     2.5730 ca         1 OEB      -0.069300
     31 C19          1.4140    -1.5170     2.3840 ca         1 OEB      -0.129500
     32 C18          0.1000    -1.1310     2.1650 ca         1 OEB      -0.085500
     33 C21          0.7140    -3.8000     2.5380 ca         1 OEB      -0.129500
     34 C20         -0.6000    -3.4170     2.3380 ca         1 OEB      -0.085500
     35 C17         -0.9220    -2.0760     2.1400 ca         1 OEB      -0.148600
     36 O           -3.2550    -2.4010     2.4170 o          1 OEB      -0.604100
     37 N           -2.6080    -0.5640     1.3000 ns         1 OEB      -0.552900
     38 C16         -2.9740     4.7610     1.8170 c6         1 OEB      -0.071900
     39 C15         -3.3160     6.2020     1.4540 c6         1 OEB      -0.072900
     40 C14         -2.9610     6.5070     0.0020 c6         1 OEB      -0.074400
     41 N1          -6.0340    -1.1970     0.4500 ns         1 OEB      -0.571900
     42 N2          -7.5800    -0.4620    -4.3340 nb         1 OEB      -0.665000
     43 H1          -4.4640    -0.0530     2.0630 h1         1 OEB       0.070700
     44 H2          -7.8720    -2.0500     0.1420 h1         1 OEB       0.062700
     45 H3          -6.5360    -3.0230    -0.4320 h1         1 OEB       0.062700
     46 H4          -7.0110     0.6420    -1.2180 ha         1 OEB       0.138000
     47 H5          -7.4180     1.4180    -3.5150 h4         1 OEB       0.017100
     48 H6          -7.7020    -2.4250    -4.9350 h4         1 OEB       0.017100
     49 H7          -7.2950    -3.3780    -2.7000 ha         1 OEB       0.138000
     50 H8          -3.5380     1.1940    -0.5550 hc         1 OEB       0.055700
     51 H9          -5.0270     1.5460     0.2970 hc         1 OEB       0.055700
     52 H10         -3.5440     2.1810     2.3340 hc         1 OEB       0.042700
     53 H11         -2.1940     2.2080     1.2190 hc         1 OEB       0.042700
     54 H12         -4.7340     3.8640     0.9930 hc         1 OEB       0.043700
     55 H13         -2.2160     3.8990    -0.7190 hc         1 OEB       0.038700
     56 H14         -3.8080     3.3900    -1.2510 hc         1 OEB       0.038700
     57 H15         -3.3330     5.7130    -1.9750 hc         1 OEB       0.038950
     58 H16         -4.7150     5.6490    -0.9010 hc         1 OEB       0.038950
     59 H17          6.2350    -0.3120     2.7110 h4         1 OEB       0.032100
     60 H18          7.4730     2.4250    -0.5900 ha         1 OEB       0.153500
     61 H19          8.8670     3.4940    -2.3240 ha         1 OEB       0.138000
     62 H20          9.9700     2.1150    -4.0580 ha         1 OEB       0.137000
     63 H21          9.6990    -0.3460    -4.0240 ha         1 OEB       0.138000
     64 H22          8.3540    -1.4210    -2.2700 ha         1 OEB       0.153500
     65 H23          5.8920    -1.1630    -2.4790 hn         1 OEB       0.435300
     66 H24          4.9120    -2.2350    -1.6100 hn         1 OEB       0.435300
     67 H25          4.6250    -1.8270     3.1300 hn         1 OEB       0.316500
     68 H26          3.3110    -4.2980     2.4600 h1         1 OEB       0.060200
     69 H27          3.2530    -3.4070     3.9610 h1         1 OEB       0.060200
     70 H28          2.1870    -0.7610     2.4130 ha         1 OEB       0.134000
     71 H29         -0.1160    -0.0760     2.0460 ha         1 OEB       0.140500
     72 H30          0.9470    -4.8490     2.6740 ha         1 OEB       0.134000
     73 H31         -1.3800    -4.1670     2.3250 ha         1 OEB       0.140500
     74 H32         -1.8790    -0.1320     0.7560 hn         1 OEB       0.326500
     75 H33         -3.2630     4.5550     2.8510 hc         1 OEB       0.038700
     76 H34         -1.8870     4.6220     1.7650 hc         1 OEB       0.038700
     77 H35         -4.3880     6.3680     1.6060 hc         1 OEB       0.038950
     78 H36         -2.7990     6.8920     2.1250 hc         1 OEB       0.038950
     79 H37         -1.8740     6.4530    -0.1250 hc         1 OEB       0.039200
     80 H38         -3.2520     7.5290    -0.2540 hc         1 OEB       0.039200
     81 H39         -6.4270    -0.6990     1.2320 hn         1 OEB       0.319500
     82 C           -2.3550    -1.7080     1.9630 c          1 OEB       0.683700
     83 C23          3.1460    -3.3040     2.8800 c3         1 OEB       0.153300
@<TRIPOS>BOND
     1     1     2 1   
     2     1     9 1   
     3     1    37 1   
     4     1    43 1   
     5     2    12 2   
     6     2    41 1   
     7     3     4 1   
     8     3    41 1   
     9     3    44 1   
    10     3    45 1   
    11     4     5 ar  
    12     4     8 ar  
    13     5     6 ar  
    14     5    46 1   
    15     6    42 ar  
    16     6    47 1   
    17     7     8 ar  
    18     7    42 ar  
    19     7    48 1   
    20     8    49 1   
    21     9    10 1   
    22     9    50 1   
    23     9    51 1   
    24    10    11 1   
    25    10    52 1   
    26    10    53 1   
    27    11    14 1   
    28    11    38 1   
    29    11    54 1   
    30    13    16 2   
    31    14    15 1   
    32    14    55 1   
    33    14    56 1   
    34    15    40 1   
    35    15    57 1   
    36    15    58 1   
    37    16    17 1   
    38    16    29 1   
    39    17    18 1   
    40    17    27 2   
    41    18    19 2   
    42    18    59 1   
    43    19    20 1   
    44    20    21 1   
    45    20    27 1   
    46    21    22 ar  
    47    21    26 ar  
    48    22    23 ar  
    49    22    60 1   
    50    23    24 ar  
    51    23    61 1   
    52    24    25 ar  
    53    24    62 1   
    54    25    26 ar  
    55    25    63 1   
    56    26    64 1   
    57    27    28 1   
    58    28    65 1   
    59    28    66 1   
    60    29    67 1   
    61    29    83 1   
    62    30    31 ar  
    63    30    33 ar  
    64    30    83 1   
    65    31    32 ar  
    66    31    70 1   
    67    32    35 ar  
    68    32    71 1   
    69    33    34 ar  
    70    33    72 1   
    71    34    35 ar  
    72    34    73 1   
    73    35    82 1   
    74    36    82 2   
    75    37    74 1   
    76    37    82 1   
    77    38    39 1   
    78    38    75 1   
    79    38    76 1   
    80    39    40 1   
    81    39    77 1   
    82    39    78 1   
    83    40    79 1   
    84    40    80 1   
    85    41    81 1   
    86    68    83 1   
    87    69    83 1   
@<TRIPOS>SUBSTRUCTURE
     1 OEB         1 TEMP              0 ****  ****    0 ROOT
