@<TRIPOS>MOLECULE
OED
   53    56     1     0     0
SMALL
No Charge or Current Charge


@<TRIPOS>ATOM
      1 O1           3.9400    -1.8130    -1.0140 o          1 OED      -0.521000
      2 C6           5.3370     2.3110    -0.3150 cc         1 OED      -0.213000
      3 C7           3.7090     1.2370    -1.9840 c3         1 OED       0.042200
      4 C9           1.7780     2.4720    -0.8910 ca         1 OED      -0.119000
      5 C10          0.4360     2.5600    -0.4840 ca         1 OED      -0.069000
      6 C11         -0.4670     1.4970    -0.7190 ca         1 OED      -0.138600
      7 C12          0.0170     0.3450    -1.3870 ca         1 OED      -0.069000
      8 C13          1.3610     0.2620    -1.7920 ca         1 OED      -0.119000
      9 C14         -1.9110     1.6330    -0.2670 c          1 OED       0.613700
     10 C15         -4.0650     0.2520    -0.0350 ca         1 OED       0.018000
     11 C16         -4.7290    -0.8590    -0.6160 ca         1 OED      -0.085300
     12 C18         -6.7640    -0.2880     0.6160 ca         1 OED      -0.224000
     13 C20         -4.7660     1.0680     0.8800 ca         1 OED      -0.162000
     14 C21         -8.0950     1.4670     2.5080 c3         1 OED       0.156900
     15 C22         -4.0220    -1.7960    -1.6060 c3         1 OED      -0.172100
     16 C23         -3.1330    -2.7930    -0.8440 c          1 OED       0.723000
     17 C1           5.9650     0.4820     0.8810 cc         1 OED       0.160400
     18 C17         -6.0750    -1.1150    -0.2840 ca         1 OED      -0.078000
     19 C19         -6.1060     0.8080     1.2050 ca         1 OED       0.119100
     20 C2           5.0850     0.0790    -0.0760 cd         1 OED      -0.292600
     21 C3           4.7060    -1.3410    -0.1900 c          1 OED       0.620600
     22 C4           6.1800    -1.6030     1.6540 cd         1 OED       0.726800
     23 C5           4.6830     1.2160    -0.8300 cd         1 OED      -0.046300
     24 C8           2.2510     1.3220    -1.5450 ca         1 OED      -0.072300
     25 N1           6.5540    -0.3550     1.7950 nc         1 OED      -0.726100
     26 N2           5.3240    -2.1030     0.7470 ns         1 OED      -0.455400
     27 N3           6.1270     1.8480     0.7430 na         1 OED      -0.112000
     28 N4           6.7140    -2.4500     2.5160 nv         1 OED      -1.045200
     29 N5          -2.7000     0.4940    -0.3650 ns         1 OED      -0.165000
     30 O2          -2.3450     2.7110     0.1300 o          1 OED      -0.644100
     31 O3          -6.7260     1.6490     2.1060 os         1 OED      -0.349100
     32 O4          -2.0000    -2.4360    -0.5600 o          1 OED      -0.718000
     33 O5          -3.6380    -3.8310    -0.4430 o          1 OED      -0.718000
     34 H1           5.3030     3.3550    -0.6060 h4         1 OED       0.145000
     35 H2           3.9350     2.0940    -2.6300 hc         1 OED       0.051200
     36 H3           3.8680     0.3560    -2.6180 hc         1 OED       0.051200
     37 H4           2.4520     3.3020    -0.6950 ha         1 OED       0.109500
     38 H5           0.1000     3.4640     0.0220 ha         1 OED       0.140000
     39 H6          -0.6350    -0.4940    -1.6150 ha         1 OED       0.140000
     40 H7           1.7070    -0.6330    -2.3030 ha         1 OED       0.109500
     41 H8          -7.7990    -0.5190     0.8480 ha         1 OED       0.097000
     42 H9          -4.2810     1.9070     1.3670 ha         1 OED       0.137000
     43 H10         -8.2350     0.4890     2.9860 h1         1 OED       0.027033
     44 H11         -8.3860     2.2430     3.2270 h1         1 OED       0.027033
     45 H12         -8.7670     1.5360     1.6420 h1         1 OED       0.027033
     46 H13         -4.7990    -2.3440    -2.1530 hc         1 OED       0.036200
     47 H14         -3.4110    -1.1760    -2.2710 hc         1 OED       0.036200
     48 H15         -6.5930    -1.9640    -0.7250 ha         1 OED       0.105000
     49 H16          5.1310    -3.0890     0.7220 hn         1 OED       0.322500
     50 H17          6.7300     2.4130     1.3280 hn         1 OED       0.351000
     51 H18          7.1890    -1.9930     3.2840 hn         1 OED       0.490500
     52 H19          6.1640    -3.2610     2.7690 hn         1 OED       0.490500
     53 H20         -2.2140    -0.3270    -0.7030 hn         1 OED       0.240000
@<TRIPOS>BOND
     1     1    21 2   
     2     2    23 2   
     3     2    27 1   
     4     2    34 1   
     5     3    23 1   
     6     3    24 1   
     7     3    35 1   
     8     3    36 1   
     9     4     5 ar  
    10     4    24 ar  
    11     4    37 1   
    12     5     6 ar  
    13     5    38 1   
    14     6     7 ar  
    15     6     9 1   
    16     7     8 ar  
    17     7    39 1   
    18     8    24 ar  
    19     8    40 1   
    20     9    29 1   
    21     9    30 2   
    22    10    11 ar  
    23    10    13 ar  
    24    10    29 1   
    25    11    15 1   
    26    11    18 ar  
    27    12    18 ar  
    28    12    19 ar  
    29    12    41 1   
    30    13    19 ar  
    31    13    42 1   
    32    14    31 1   
    33    14    43 1   
    34    14    44 1   
    35    14    45 1   
    36    15    16 1   
    37    15    46 1   
    38    15    47 1   
    39    16    32 1   
    40    16    33 1   
    41    17    20 2   
    42    17    25 1   
    43    17    27 1   
    44    18    48 1   
    45    19    31 1   
    46    20    21 1   
    47    20    23 1   
    48    21    26 1   
    49    22    25 2   
    50    22    26 1   
    51    22    28 1   
    52    26    49 1   
    53    27    50 1   
    54    28    51 1   
    55    28    52 1   
    56    29    53 1   
@<TRIPOS>SUBSTRUCTURE
     1 OED         1 TEMP              0 ****  ****    0 ROOT
