@<TRIPOS>MOLECULE
OED
   53    56     1     0     0
SMALL
abcg2


@<TRIPOS>ATOM
      1 O1           3.6710    -1.8420    -0.7070 o          1 OED      -0.521000
      2 C6           5.3870     2.2280    -0.5380 cc         1 OED      -0.213000
      3 C7           3.6470     1.1990    -2.1000 c3         1 OED       0.042200
      4 C9           1.7280     2.3170    -0.9070 ca         1 OED      -0.119000
      5 C10          0.4060     2.3730    -0.5050 ca         1 OED      -0.069000
      6 C11         -0.4750     1.3330    -0.8050 ca         1 OED      -0.138600
      7 C12          0.0040     0.2480    -1.5370 ca         1 OED      -0.069000
      8 C13          1.3290     0.2040    -1.9470 ca         1 OED      -0.119000
      9 C14         -1.8960     1.4660    -0.3560 c          1 OED       0.613700
     10 C15         -3.9600     0.1870     0.0260 ca         1 OED       0.018000
     11 C16         -4.7030    -0.7850    -0.6700 ca         1 OED      -0.085300
     12 C18         -6.6340    -0.2230     0.7080 ca         1 OED      -0.224000
     13 C20         -4.5500     0.9380     1.0340 ca         1 OED      -0.162000
     14 C21         -7.7050     1.3570     2.7690 c3         1 OED       0.156900
     15 C22         -4.1250    -1.5900    -1.8050 c3         1 OED      -0.172100
     16 C23         -3.1310    -2.6850    -1.3650 c          1 OED       0.723000
     17 C1           5.8290     0.5530     0.8620 cc         1 OED       0.160400
     18 C17         -6.0270    -0.9660    -0.2970 ca         1 OED      -0.078000
     19 C19         -5.8880     0.7410     1.3750 ca         1 OED       0.119100
     20 C2           4.8920     0.1050    -0.0700 cd         1 OED      -0.292600
     21 C3           4.4530    -1.2450     0.0190 c          1 OED       0.620600
     22 C4           5.9500    -1.3730     1.9670 cd         1 OED       0.726800
     23 C5           4.6150     1.1870    -0.9630 cd         1 OED      -0.046300
     24 C8           2.2090     1.2340    -1.6410 ca         1 OED      -0.072300
     25 N1           6.3710    -0.1400     1.8820 nc         1 OED      -0.726100
     26 N2           5.0440    -1.9110     1.1000 ns         1 OED      -0.455400
     27 N3           6.1160     1.8350     0.5660 na         1 OED      -0.112000
     28 N4           6.4430    -2.1930     2.9150 nv         1 OED      -1.045200
     29 N5          -2.6030     0.3180    -0.3060 ns         1 OED      -0.165000
     30 O2          -2.3530     2.5620    -0.0600 o          1 OED      -0.644100
     31 O3          -6.3610     1.5240     2.3680 os         1 OED      -0.349100
     32 O4          -2.1270    -2.2920    -0.7110 o          1 OED      -0.718000
     33 O5          -3.3710    -3.8550    -1.6850 o          1 OED      -0.718000
     34 H1           5.4780     3.2280    -0.9300 h4         1 OED       0.145000
     35 H2           3.8410     2.0750    -2.7240 hc         1 OED       0.051200
     36 H3           3.7980     0.3260    -2.7360 hc         1 OED       0.051200
     37 H4           2.3970     3.1300    -0.6490 ha         1 OED       0.109500
     38 H5           0.0540     3.2300     0.0530 ha         1 OED       0.140000
     39 H6          -0.6430    -0.5770    -1.8060 ha         1 OED       0.140000
     40 H7           1.6790    -0.6480    -2.5140 ha         1 OED       0.109500
     41 H8          -7.6730    -0.4070     0.9450 ha         1 OED       0.097000
     42 H9          -3.9750     1.6710     1.5800 ha         1 OED       0.137000
     43 H10         -7.9000     0.3480     3.1420 h1         1 OED       0.027033
     44 H11         -7.8780     2.0660     3.5750 h1         1 OED       0.027033
     45 H12         -8.4050     1.5740     1.9570 h1         1 OED       0.027033
     46 H13         -4.9430    -2.0440    -2.3640 hc         1 OED       0.036200
     47 H14         -3.6050    -0.9190    -2.4990 hc         1 OED       0.036200
     48 H15         -6.6210    -1.7050    -0.8210 ha         1 OED       0.105000
     49 H16          4.7780    -2.8790     1.2190 hn         1 OED       0.322500
     50 H17          6.7750     2.4110     1.0650 hn         1 OED       0.351000
     51 H18          6.9620    -1.7630     3.6620 hn         1 OED       0.490500
     52 H19          5.9540    -3.0380     3.1570 hn         1 OED       0.490500
     53 H20         -2.1730    -0.6010    -0.5180 hn         1 OED       0.240000
@<TRIPOS>BOND
     1     1    21 2   
     2     2    23 2   
     3     2    27 1   
     4     2    34 1   
     5     3    23 1   
     6     3    24 1   
     7     3    35 1   
     8     3    36 1   
     9     4     5 ar  
    10     4    24 ar  
    11     4    37 1   
    12     5     6 ar  
    13     5    38 1   
    14     6     7 ar  
    15     6     9 1   
    16     7     8 ar  
    17     7    39 1   
    18     8    24 ar  
    19     8    40 1   
    20     9    29 1   
    21     9    30 2   
    22    10    11 ar  
    23    10    13 ar  
    24    10    29 1   
    25    11    15 1   
    26    11    18 ar  
    27    12    18 ar  
    28    12    19 ar  
    29    12    41 1   
    30    13    19 ar  
    31    13    42 1   
    32    14    31 1   
    33    14    43 1   
    34    14    44 1   
    35    14    45 1   
    36    15    16 1   
    37    15    46 1   
    38    15    47 1   
    39    16    32 1   
    40    16    33 1   
    41    17    20 2   
    42    17    25 1   
    43    17    27 1   
    44    18    48 1   
    45    19    31 1   
    46    20    21 1   
    47    20    23 1   
    48    21    26 1   
    49    22    25 2   
    50    22    26 1   
    51    22    28 1   
    52    26    49 1   
    53    27    50 1   
    54    28    51 1   
    55    28    52 1   
    56    29    53 1   
@<TRIPOS>SUBSTRUCTURE
     1 OED         1 TEMP              0 ****  ****    0 ROOT
