@<TRIPOS>MOLECULE
OEE
   35    34     1     0     0
SMALL
abcg2


@<TRIPOS>ATOM
      1 C3          -6.4120     4.7130    17.6880 c3         1 OEE       0.041400
      2 C6          -6.8240     2.5290    16.6110 c          1 OEE       0.660100
      3 C9          -6.8790     0.5090    13.6070 c3         1 OEE      -0.109100
      4 C1          -4.0070     3.9590    18.0560 c2         1 OEE       0.049900
      5 O2          -7.0670     1.9230    17.6340 o          1 OEE      -0.561000
      6 O1          -6.8030     2.0110    15.3840 os         1 OEE      -0.474100
      7 C7          -7.0190     0.6000    15.1220 c3         1 OEE       0.226000
      8 C10         -8.4210     0.1730    15.5390 c3         1 OEE      -0.109100
      9 C8          -5.9460    -0.2470    15.7950 c3         1 OEE      -0.109100
     10 N           -6.5380     3.8480    16.5490 ns         1 OEE      -0.499900
     11 C4          -7.7400     4.9110    18.4330 c3         1 OEE      -0.106100
     12 C5          -6.0210     6.0820    17.1700 c          1 OEE       0.568900
     13 O           -5.8980     6.3710    16.0110 o          1 OEE      -0.496100
     14 C2          -5.3300     4.2380    18.6940 c3         1 OEE      -0.085200
     15 O3          -3.2800     5.0480    17.6740 oh         1 OEE      -0.554100
     16 C           -3.5670     2.7370    17.7760 c2         1 OEE      -0.342000
     17 H1          -7.0400    -0.5160    13.2760 hc         1 OEE       0.049367
     18 H2          -7.6130     1.1390    13.1030 hc         1 OEE       0.049367
     19 H3          -5.8850     0.8120    13.2790 hc         1 OEE       0.049367
     20 H4          -8.5500     0.1700    16.6180 hc         1 OEE       0.049367
     21 H5          -9.1770     0.8240    15.0970 hc         1 OEE       0.049367
     22 H6          -8.6110    -0.8380    15.1790 hc         1 OEE       0.049367
     23 H7          -6.0270    -0.2350    16.8790 hc         1 OEE       0.049367
     24 H8          -6.0420    -1.2820    15.4680 hc         1 OEE       0.049367
     25 H9          -4.9460     0.0910    15.5160 hc         1 OEE       0.049367
     26 H10         -6.3050     4.2420    15.6500 hn         1 OEE       0.348500
     27 H11         -7.6320     5.6240    19.2500 hc         1 OEE       0.053700
     28 H12         -8.5100     5.2830    17.7580 hc         1 OEE       0.053700
     29 H13         -8.0760     3.9680    18.8570 hc         1 OEE       0.053700
     30 H14         -5.8850     6.8370    17.9660 h4         1 OEE      -0.010800
     31 H15         -5.2270     4.9940    19.4830 hc         1 OEE       0.070200
     32 H16         -5.6980     3.3450    19.1930 hc         1 OEE       0.070200
     33 H17         -3.4060     5.7680    18.2990 ho         1 OEE       0.450000
     34 H18         -4.1740     1.8740    18.0030 ha         1 OEE       0.182500
     35 H19         -2.6150     2.5700    17.2910 ha         1 OEE       0.182500
@<TRIPOS>BOND
     1     1    10 1   
     2     1    11 1   
     3     1    12 1   
     4     1    14 1   
     5     2     5 2   
     6     2     6 1   
     7     2    10 1   
     8     3     7 1   
     9     3    17 1   
    10     3    18 1   
    11     3    19 1   
    12     4    14 1   
    13     4    15 1   
    14     4    16 2   
    15     6     7 1   
    16     7     8 1   
    17     7     9 1   
    18     8    20 1   
    19     8    21 1   
    20     8    22 1   
    21     9    23 1   
    22     9    24 1   
    23     9    25 1   
    24    10    26 1   
    25    11    27 1   
    26    11    28 1   
    27    11    29 1   
    28    12    13 2   
    29    12    30 1   
    30    14    31 1   
    31    14    32 1   
    32    15    33 1   
    33    16    34 1   
    34    16    35 1   
@<TRIPOS>SUBSTRUCTURE
     1 OEE         1 TEMP              0 ****  ****    0 ROOT
