@<TRIPOS>MOLECULE
OEE
   35    34     1     0     0
SMALL
No Charge or Current Charge


@<TRIPOS>ATOM
      1 C3          -6.3690     4.7240    17.7020 c3         1 OEE       0.041400
      2 C6          -6.8480     2.4280    16.6670 c          1 OEE       0.660100
      3 C9          -6.9020     0.4180    13.5770 c3         1 OEE      -0.109100
      4 C1          -3.8810     4.1340    18.1240 c2         1 OEE       0.049900
      5 O2          -7.1280     1.8270    17.6910 o          1 OEE      -0.561000
      6 O1          -6.8000     1.9180    15.3990 os         1 OEE      -0.474100
      7 C7          -7.0770     0.5280    15.1080 c3         1 OEE       0.226000
      8 C10         -8.5410     0.1940    15.4970 c3         1 OEE      -0.109100
      9 C8          -6.0370    -0.3710    15.8250 c3         1 OEE      -0.109100
     10 N           -6.5000     3.7490    16.5880 ns         1 OEE      -0.499900
     11 C4          -7.7340     4.8880    18.4240 c3         1 OEE      -0.106100
     12 C5          -5.9740     6.1080    17.0930 c          1 OEE       0.568900
     13 O           -5.8410     6.3220    15.8900 o          1 OEE      -0.496100
     14 C2          -5.2740     4.2750    18.7220 c3         1 OEE      -0.085200
     15 O3          -3.0870     5.2080    18.2500 oh         1 OEE      -0.554100
     16 C           -3.4140     3.0260    17.5440 c2         1 OEE      -0.342000
     17 H1          -7.0880    -0.6070    13.2350 hc         1 OEE       0.049367
     18 H2          -7.6020     1.0820    13.0560 hc         1 OEE       0.049367
     19 H3          -5.8830     0.6950    13.2810 hc         1 OEE       0.049367
     20 H4          -8.6730     0.1280    16.5820 hc         1 OEE       0.049367
     21 H5          -9.2300     0.9540    15.1090 hc         1 OEE       0.049367
     22 H6          -8.8360    -0.7750    15.0760 hc         1 OEE       0.049367
     23 H7          -6.2130    -0.4220    16.9040 hc         1 OEE       0.049367
     24 H8          -6.0900    -1.3970    15.4400 hc         1 OEE       0.049367
     25 H9          -5.0190     0.0010    15.6560 hc         1 OEE       0.049367
     26 H10         -6.2900     4.0710    15.6500 hn         1 OEE       0.348500
     27 H11         -7.6790     5.6710    19.1900 hc         1 OEE       0.053700
     28 H12         -8.5200     5.1670    17.7110 hc         1 OEE       0.053700
     29 H13         -8.0410     3.9610    18.9210 hc         1 OEE       0.053700
     30 H14         -5.8150     6.9230    17.8340 h4         1 OEE      -0.010800
     31 H15         -5.2580     4.9710    19.5700 hc         1 OEE       0.070200
     32 H16         -5.5700     3.3140    19.1600 hc         1 OEE       0.070200
     33 H17         -3.5290     5.8570    18.8370 ho         1 OEE       0.450000
     34 H18         -4.0270     2.1310    17.4460 ha         1 OEE       0.182500
     35 H19         -2.4010     2.9740    17.1480 ha         1 OEE       0.182500
@<TRIPOS>BOND
     1     1    10 1   
     2     1    11 1   
     3     1    12 1   
     4     1    14 1   
     5     2     5 2   
     6     2     6 1   
     7     2    10 1   
     8     3     7 1   
     9     3    17 1   
    10     3    18 1   
    11     3    19 1   
    12     4    14 1   
    13     4    15 1   
    14     4    16 2   
    15     6     7 1   
    16     7     8 1   
    17     7     9 1   
    18     8    20 1   
    19     8    21 1   
    20     8    22 1   
    21     9    23 1   
    22     9    24 1   
    23     9    25 1   
    24    10    26 1   
    25    11    27 1   
    26    11    28 1   
    27    11    29 1   
    28    12    13 2   
    29    12    30 1   
    30    14    31 1   
    31    14    32 1   
    32    15    33 1   
    33    16    34 1   
    34    16    35 1   
@<TRIPOS>SUBSTRUCTURE
     1 OEE         1 TEMP              0 ****  ****    0 ROOT
