@<TRIPOS>MOLECULE
OEF
   41    42     1     0     0
SMALL
bcc


@<TRIPOS>ATOM
      1 C1           5.2030    -2.7970    -3.4770 ca         1 OEF      -0.037300
      2 C2           1.9940    -1.0230    -0.0860 ca         1 OEF       0.110100
      3 C3           4.0880    -3.5350    -3.0950 ca         1 OEF      -0.093500
      4 C4           2.9920    -1.5750     0.6970 ca         1 OEF      -0.148000
      5 C5           3.0450    -2.9290    -2.4130 ca         1 OEF      -0.030400
      6 C6           2.8890    -1.6100     2.0860 ca         1 OEF      -0.066300
      7 C7           3.0830    -1.5760    -2.0930 ca         1 OEF       0.104100
      8 C8           1.7440    -1.0720     2.6790 ca         1 OEF       0.101100
      9 C9           4.2040    -0.8460    -2.4770 ca         1 OEF      -0.030400
     10 C10          0.7480    -0.5070     1.8850 ca         1 OEF      -0.199000
     11 C11          5.2470    -1.4400    -3.1660 ca         1 OEF      -0.093500
     12 C12          0.8650    -0.4800     0.5060 ca         1 OEF      -0.116000
     13 C13          6.3610    -3.4600    -4.1670 c3         1 OEF      -0.026100
     14 C14          7.4820    -3.7890    -3.1850 c3         1 OEF      -0.207400
     15 BR1          1.5410    -3.9380    -1.9100 br         1 OEF      -0.095600
     16 C15          3.9830    -2.2620     2.9030 c3         1 OEF      -0.010400
     17 BR2          4.2790     0.9840    -2.0530 br         1 OEF      -0.095600
     18 O2           2.0470    -0.9750    -1.4620 os         1 OEF      -0.235200
     19 O1           1.6340    -1.1190     4.0270 oh         1 OEF      -0.501100
     20 C18          8.6910    -4.5200    -3.7980 c          1 OEF       0.929600
     21 C16          5.3680    -1.7180     2.5570 c3         1 OEF      -0.085100
     22 O3           9.5880    -4.8490    -2.9940 o          1 OEF      -0.839300
     23 O4           8.6850    -4.7230    -5.0270 o          1 OEF      -0.839300
     24 C17          3.9380    -3.7830     2.7400 c3         1 OEF      -0.085100
     25 H3           4.0390    -4.5900    -3.3350 ha         1 OEF       0.157500
     26 H11          6.1070    -0.8530    -3.4640 ha         1 OEF       0.157500
     27 H131         6.0170    -4.3750    -4.6530 hc         1 OEF       0.059200
     28 H132         6.7400    -2.8110    -4.9580 hc         1 OEF       0.059200
     29 H4           3.8740    -2.0010     0.2360 ha         1 OEF       0.156000
     30 H12          0.0810    -0.0430    -0.0990 ha         1 OEF       0.144000
     31 H15          3.8050    -2.0390     3.9560 hc         1 OEF       0.058700
     32 H10         -0.1360    -0.0840     2.3470 ha         1 OEF       0.124000
     33 H1           0.8010    -0.7240     4.3070 ho         1 OEF       0.416000
     34 H141         7.8400    -2.8690    -2.7110 hc         1 OEF       0.022700
     35 H142         7.0860    -4.3960    -2.3640 hc         1 OEF       0.022700
     36 H161         5.6590    -1.9490     1.5300 hc         1 OEF       0.035700
     37 H162         6.1190    -2.1650     3.2110 hc         1 OEF       0.035700
     38 H163         5.4170    -0.6360     2.6830 hc         1 OEF       0.035700
     39 H171         2.9600    -4.1850     3.0080 hc         1 OEF       0.035700
     40 H172         4.6840    -4.2600     3.3770 hc         1 OEF       0.035700
     41 H173         4.1460    -4.0770     1.7080 hc         1 OEF       0.035700
@<TRIPOS>BOND
     1     1     3 ar  
     2     1    11 ar  
     3     1    13 1   
     4     2     4 ar  
     5     2    12 ar  
     6     2    18 1   
     7     3     5 ar  
     8     3    25 1   
     9     4     6 ar  
    10     4    29 1   
    11     5     7 ar  
    12     5    15 1   
    13     6     8 ar  
    14     6    16 1   
    15     7     9 ar  
    16     7    18 1   
    17     8    10 ar  
    18     8    19 1   
    19     9    11 ar  
    20     9    17 1   
    21    10    12 ar  
    22    10    32 1   
    23    11    26 1   
    24    12    30 1   
    25    13    14 1   
    26    13    27 1   
    27    13    28 1   
    28    14    20 1   
    29    14    34 1   
    30    14    35 1   
    31    16    21 1   
    32    16    24 1   
    33    16    31 1   
    34    19    33 1   
    35    20    22 1   
    36    20    23 1   
    37    21    36 1   
    38    21    37 1   
    39    21    38 1   
    40    24    39 1   
    41    24    40 1   
    42    24    41 1   
@<TRIPOS>SUBSTRUCTURE
     1 OEF         1 TEMP              0 ****  ****    0 ROOT
