@<TRIPOS>MOLECULE
OEF
   41    42     1     0     0
SMALL
No Charge or Current Charge


@<TRIPOS>ATOM
      1 C1           5.2450    -2.8350    -3.4860 ca         1 OEF      -0.037300
      2 C2           1.9460    -1.0640    -0.0710 ca         1 OEF       0.110100
      3 C3           4.1350    -3.6070    -3.0930 ca         1 OEF      -0.075500
      4 C4           2.9700    -1.5940     0.7410 ca         1 OEF      -0.130000
      5 C5           3.0590    -3.0100    -2.4140 ca         1 OEF      -0.030400
      6 C6           2.8440    -1.6060     2.1480 ca         1 OEF      -0.066300
      7 C7           3.0880    -1.6310    -2.1230 ca         1 OEF       0.104100
      8 C8           1.6680    -1.0710     2.7330 ca         1 OEF       0.101100
      9 C9           4.1970    -0.8560    -2.5140 ca         1 OEF      -0.030400
     10 C10          0.6510    -0.5400     1.9200 ca         1 OEF      -0.181000
     11 C11          5.2720    -1.4580    -3.1920 ca         1 OEF      -0.075500
     12 C12          0.7900    -0.5360     0.5230 ca         1 OEF      -0.098000
     13 C13          6.4150    -3.4860    -4.2130 c3         1 OEF      -0.026100
     14 C14          7.4890    -4.0140    -3.2340 c3         1 OEF      -0.207400
     15 Br1          1.5690    -4.0960    -1.8870 br         1 OEF      -0.095600
     16 C15          3.9830    -2.1980     2.9960 c3         1 OEF      -0.010400
     17 Br2          4.2720     1.0180    -2.1130 br         1 OEF      -0.095600
     18 O2           2.0440    -1.0430    -1.4470 os         1 OEF      -0.235200
     19 O1           1.4910    -1.0550     4.0870 oh         1 OEF      -0.540100
     20 C18          8.6430    -4.6600    -4.0180 c          1 OEF       0.719000
     21 C16          5.2930    -1.3980     2.8200 c3         1 OEF      -0.085100
     22 O3           8.5580    -5.8460    -4.2950 o          1 OEF      -0.734000
     23 O4           9.5660    -3.9450    -4.3760 o          1 OEF      -0.734000
     24 C17          4.1900    -3.7000     2.6930 c3         1 OEF      -0.085100
     25 H3           4.1100    -4.6730    -3.3110 ha         1 OEF       0.139500
     26 H11          6.1280    -0.8550    -3.4850 ha         1 OEF       0.139500
     27 H131         6.0550    -4.3150    -4.8370 hc         1 OEF       0.059200
     28 H132         6.8760    -2.7680    -4.9030 hc         1 OEF       0.059200
     29 H4           3.8680    -1.9990     0.2860 ha         1 OEF       0.138000
     30 H12          0.0010    -0.1260    -0.1030 ha         1 OEF       0.126000
     31 H15          3.7310    -2.1360     4.0610 hc         1 OEF       0.058700
     32 H10         -0.2510    -0.1280     2.3660 ha         1 OEF       0.106000
     33 H1           0.6210    -0.6470     4.2820 ho         1 OEF       0.455000
     34 H141         7.8440    -3.1380    -2.6770 hc         1 OEF       0.022700
     35 H142         6.9840    -4.7600    -2.6080 hc         1 OEF       0.022700
     36 H161         5.6680    -1.4650     1.7910 hc         1 OEF       0.035700
     37 H162         6.0720    -1.7790     3.4910 hc         1 OEF       0.035700
     38 H163         5.1300    -0.3400     3.0570 hc         1 OEF       0.035700
     39 H171         3.2550    -4.2530     2.8410 hc         1 OEF       0.035700
     40 H172         4.9460    -4.1280     3.3620 hc         1 OEF       0.035700
     41 H173         4.5230    -3.8570     1.6600 hc         1 OEF       0.035700
@<TRIPOS>BOND
     1     1     3 ar  
     2     1    11 ar  
     3     1    13 1   
     4     2     4 ar  
     5     2    12 ar  
     6     2    18 1   
     7     3     5 ar  
     8     3    25 1   
     9     4     6 ar  
    10     4    29 1   
    11     5     7 ar  
    12     5    15 1   
    13     6     8 ar  
    14     6    16 1   
    15     7     9 ar  
    16     7    18 1   
    17     8    10 ar  
    18     8    19 1   
    19     9    11 ar  
    20     9    17 1   
    21    10    12 ar  
    22    10    32 1   
    23    11    26 1   
    24    12    30 1   
    25    13    14 1   
    26    13    27 1   
    27    13    28 1   
    28    14    20 1   
    29    14    34 1   
    30    14    35 1   
    31    16    21 1   
    32    16    24 1   
    33    16    31 1   
    34    19    33 1   
    35    20    22 1   
    36    20    23 1   
    37    21    36 1   
    38    21    37 1   
    39    21    38 1   
    40    24    39 1   
    41    24    40 1   
    42    24    41 1   
@<TRIPOS>SUBSTRUCTURE
     1 OEF         1 TEMP              0 ****  ****    0 ROOT
