@<TRIPOS>MOLECULE
OEG
   13    12     1     0     0
SMALL
No Charge or Current Charge


@<TRIPOS>ATOM
      1 C1           2.5810    -0.0370     0.0490 c          1 OEG       0.719500
      2 O1           2.5240    -1.2620     0.0740 o          1 OEG      -0.749250
      3 C2           1.2570     0.8080     0.0240 c3         1 OEG       0.021600
      4 O2           0.0450     0.0110     0.0340 os         1 OEG      -0.391000
      5 C3          -1.1820     0.7830     0.0120 c3         1 OEG       0.021600
      6 C4          -2.4880    -0.0900     0.0220 c          1 OEG       0.719500
      7 O3          -2.4070    -1.3130     0.0480 o          1 OEG      -0.749250
      8 O4          -3.5640     0.4970     0.0040 o          1 OEG      -0.749250
      9 O5           3.6440     0.5720     0.0420 o          1 OEG      -0.749250
     10 H1           1.2660     1.4760     0.8970 h1         1 OEG      -0.023800
     11 H2           1.2760     1.4400    -0.8750 h1         1 OEG      -0.023800
     12 H3          -1.2140     1.4510     0.8840 h1         1 OEG      -0.023800
     13 H4          -1.2050     1.4140    -0.8880 h1         1 OEG      -0.023800
@<TRIPOS>BOND
     1     1     2 1   
     2     1     3 1   
     3     1     9 1   
     4     3     4 1   
     5     3    10 1   
     6     3    11 1   
     7     4     5 1   
     8     5     6 1   
     9     5    12 1   
    10     5    13 1   
    11     6     7 1   
    12     6     8 1   
@<TRIPOS>SUBSTRUCTURE
     1 OEG         1 TEMP              0 ****  ****    0 ROOT
