@<TRIPOS>MOLECULE
OEG
   13    12     1     0     0
SMALL
abcg2


@<TRIPOS>ATOM
      1 C1           2.4850    -0.0480     0.0590 c          1 OEG       0.719500
      2 O1           2.3800    -1.2820     0.1320 o          1 OEG      -0.749250
      3 C2           1.1980     0.7910     0.0160 c3         1 OEG       0.021600
      4 O2           0.0460    -0.0040     0.0400 os         1 OEG      -0.391000
      5 C3          -1.1230     0.7670     0.0190 c3         1 OEG       0.021600
      6 C4          -2.3920    -0.0990     0.0180 c          1 OEG       0.719500
      7 O3          -2.2630    -1.3320    -0.0340 o          1 OEG      -0.749250
      8 O4          -3.4580     0.5510     0.0640 o          1 OEG      -0.749250
      9 O5           3.5370     0.6230     0.0150 o          1 OEG      -0.749250
     10 H1           1.2130     1.4910     0.8680 h1         1 OEG      -0.023800
     11 H2           1.2240     1.4250    -0.8850 h1         1 OEG      -0.023800
     12 H3          -1.1630     1.4480     0.8850 h1         1 OEG      -0.023800
     13 H4          -1.1500     1.4200    -0.8690 h1         1 OEG      -0.023800
@<TRIPOS>BOND
     1     1     2 1   
     2     1     3 1   
     3     1     9 1   
     4     3     4 1   
     5     3    10 1   
     6     3    11 1   
     7     4     5 1   
     8     5     6 1   
     9     5    12 1   
    10     5    13 1   
    11     6     7 1   
    12     6     8 1   
@<TRIPOS>SUBSTRUCTURE
     1 OEG         1 TEMP              0 ****  ****    0 ROOT
