@<TRIPOS>MOLECULE
OEH
   87    90     1     0     0
SMALL
No Charge or Current Charge


@<TRIPOS>ATOM
      1 C1         -19.3740   -11.7720    -7.5220 c3         1 OEH       0.206600
      2 C2         -19.1400   -10.5760    -9.7360 ca         1 OEH       0.430000
      3 C3         -19.8310   -10.0860   -10.8540 ca         1 OEH      -0.226000
      4 C4         -19.1860    -9.9320   -12.0920 ca         1 OEH       0.053000
      5 C5         -17.8260   -10.2890   -12.2380 ca         1 OEH      -0.206000
      6 C6         -17.0670   -10.1490   -13.4920 cc         1 OEH       0.342000
      7 C7         -17.6370    -9.4290   -14.5410 cd         1 OEH      -0.125000
      8 O1         -13.7290    -0.4190   -19.0540 os         1 OEH      -0.442000
      9 O3         -20.4500   -11.5630   -15.6740 o          1 OEH      -0.668500
     10 O5         -15.7830   -10.9850   -11.1440 os         1 OEH      -0.279000
     11 N          -19.7920   -10.7290    -8.4900 nh         1 OEH      -0.794400
     12 C          -20.9270    -9.8600    -8.0970 c3         1 OEH       0.206600
     13 O          -15.4840    -2.7740   -18.9500 os         1 OEH      -0.442000
     14 C11        -17.0800    -3.9840   -17.6060 c3         1 OEH       0.097000
     15 C12        -15.8220    -4.0940   -18.4940 c3         1 OEH       0.135600
     16 C13        -14.3160    -2.7130   -19.7910 c3         1 OEH       0.127600
     17 C14        -14.0600    -1.2370   -20.2030 c3         1 OEH       0.160600
     18 C15        -12.4660    -0.6970   -18.4190 c3         1 OEH       0.159600
     19 C16        -12.2430     0.3510   -17.3080 c3         1 OEH      -0.073400
     20 C17        -12.0870     1.7990   -17.8330 c3         1 OEH      -0.071400
     21 C18        -11.8280     2.8240   -16.7060 c3         1 OEH      -0.077400
     22 C19        -11.6730     4.2710   -17.2320 c3         1 OEH      -0.084400
     23 C20        -11.4560     5.3230   -16.1230 c3         1 OEH       0.137600
     24 C21        -18.7890    -7.8160   -16.5140 cc         1 OEH      -0.154000
     25 C22        -19.3770    -9.0340   -16.2370 cd         1 OEH      -0.160000
     26 C23        -18.8130    -9.9250   -15.2470 cd         1 OEH      -0.071000
     27 C24        -19.4240   -11.2990   -15.0610 c          1 OEH       0.685000
     28 C25        -15.6130   -10.3370   -13.4630 ca         1 OEH      -0.206000
     29 C26        -14.7990   -10.2210   -14.6110 ca         1 OEH       0.053000
     30 C27        -13.4170   -10.4510   -14.5220 ca         1 OEH      -0.226000
     31 C28        -15.0210   -10.7590   -12.2620 ca         1 OEH       0.289000
     32 C29        -13.6450   -10.9920   -12.1810 ca         1 OEH      -0.271500
     33 C30        -12.8260   -10.8290   -13.3060 ca         1 OEH       0.430000
     34 C31        -10.4750   -10.3350   -14.0900 c3         1 OEH       0.206600
     35 C32        -10.8670   -12.0430   -12.2660 c3         1 OEH       0.206600
     36 C33        -17.1320   -10.7330   -11.0990 ca         1 OEH       0.289000
     37 C34        -17.7820   -10.8860    -9.8700 ca         1 OEH      -0.271500
     38 C8         -17.0270    -8.1620   -14.8660 cd         1 OEH      -0.132000
     39 C9         -17.5910    -7.3590   -15.8430 cc         1 OEH      -0.170200
     40 N1         -17.5590    -5.2890   -17.1250 ns         1 OEH      -0.503900
     41 N2         -11.4330   -11.0620   -13.2230 nh         1 OEH      -0.794400
     42 O2         -15.9330    -5.6370   -15.5850 o          1 OEH      -0.605100
     43 O4         -18.8660   -12.1270   -14.3570 o          1 OEH      -0.668500
     44 H1         -20.2150   -12.0710    -6.8820 h1         1 OEH       0.049450
     45 H2         -19.0250   -12.6710    -8.0470 h1         1 OEH       0.049450
     46 H3         -18.5640   -11.4020    -6.8800 h1         1 OEH       0.049450
     47 H4         -20.8820    -9.8270   -10.7760 ha         1 OEH       0.129000
     48 H5         -19.7620    -9.5270   -12.9180 ha         1 OEH       0.143000
     49 H6         -21.0080    -9.7930    -7.0040 h1         1 OEH       0.049450
     50 H7         -20.7860    -8.8410    -8.4800 h1         1 OEH       0.049450
     51 H8         -21.8720   -10.2580    -8.4910 h1         1 OEH       0.049450
     52 H9         -16.8580    -3.3440   -16.7420 h1         1 OEH       0.069700
     53 H10        -17.8840    -3.5080   -18.1810 h1         1 OEH       0.069700
     54 H11        -16.0330    -4.7540   -19.3460 h1         1 OEH       0.024700
     55 H12        -14.9960    -4.5270   -17.9160 h1         1 OEH       0.024700
     56 H13        -14.4770    -3.3050   -20.7010 h1         1 OEH       0.024200
     57 H14        -13.4380    -3.1270   -19.2790 h1         1 OEH       0.024200
     58 H15        -13.2480    -1.2060   -20.9410 h1         1 OEH       0.050200
     59 H16        -14.9620    -0.8490   -20.6930 h1         1 OEH       0.050200
     60 H17        -12.4660    -1.6950   -17.9650 h1         1 OEH       0.018200
     61 H18        -11.6430    -0.6450   -19.1440 h1         1 OEH       0.018200
     62 H19        -13.0780     0.3030   -16.5980 hc         1 OEH       0.049200
     63 H20        -11.3400     0.0750   -16.7510 hc         1 OEH       0.049200
     64 H21        -11.2580     1.8340   -18.5500 hc         1 OEH       0.043700
     65 H22        -12.9940     2.0880   -18.3780 hc         1 OEH       0.043700
     66 H23        -12.6580     2.7880   -15.9900 hc         1 OEH       0.045700
     67 H24        -10.9220     2.5320   -16.1610 hc         1 OEH       0.045700
     68 H25        -10.8350     4.3190   -17.9390 hc         1 OEH       0.050700
     69 H26        -12.5750     4.5430   -17.7930 hc         1 OEH       0.050700
     70 H27        -11.4500     6.3310   -16.5570 h1         1 OEH       0.062700
     71 H28        -12.2570     5.2650   -15.3740 h1         1 OEH       0.062700
     72 H30        -19.2530    -7.1980   -17.2780 ha         1 OEH       0.179000
     73 H31        -20.2600    -9.3330   -16.7980 ha         1 OEH       0.218000
     74 H32        -15.2260    -9.9650   -15.5790 ha         1 OEH       0.143000
     75 H33        -12.8110   -10.3540   -15.4170 ha         1 OEH       0.129000
     76 H34        -13.2210   -11.2970   -11.2310 ha         1 OEH       0.138500
     77 H35         -9.4900   -10.2600   -13.6080 h1         1 OEH       0.049450
     78 H36        -10.3530   -10.8540   -15.0500 h1         1 OEH       0.049450
     79 H37        -10.8250    -9.3120   -14.2830 h1         1 OEH       0.049450
     80 H38        -10.7130   -11.5800   -11.2830 h1         1 OEH       0.049450
     81 H39        -11.5400   -12.9030   -12.1490 h1         1 OEH       0.049450
     82 H40         -9.9020   -12.4270   -12.6240 h1         1 OEH       0.049450
     83 H41        -17.2090   -11.2250    -9.0140 ha         1 OEH       0.138500
     84 H42        -16.1530    -7.8150   -14.3180 ha         1 OEH       0.195000
     85 H43        -18.3910    -5.6790   -17.5460 hn         1 OEH       0.317500
     86 Cl1         -9.8670     5.0930   -15.2640 cl         1 OEH      -0.303000
     87 C10        -16.9410    -6.0410   -16.1490 c          1 OEH       0.612300
@<TRIPOS>BOND
     1     1    11 1   
     2     1    44 1   
     3     1    45 1   
     4     1    46 1   
     5     2     3 ar  
     6     2    11 1   
     7     2    37 ar  
     8     3     4 ar  
     9     3    47 1   
    10     4     5 ar  
    11     4    48 1   
    12     5     6 1   
    13     5    36 ar  
    14     6     7 2   
    15     6    28 1   
    16     7    26 1   
    17     7    38 1   
    18     8    17 1   
    19     8    18 1   
    20     9    27 1   
    21    10    31 1   
    22    10    36 1   
    23    11    12 1   
    24    12    49 1   
    25    12    50 1   
    26    12    51 1   
    27    13    15 1   
    28    13    16 1   
    29    14    15 1   
    30    14    40 1   
    31    14    52 1   
    32    14    53 1   
    33    15    54 1   
    34    15    55 1   
    35    16    17 1   
    36    16    56 1   
    37    16    57 1   
    38    17    58 1   
    39    17    59 1   
    40    18    19 1   
    41    18    60 1   
    42    18    61 1   
    43    19    20 1   
    44    19    62 1   
    45    19    63 1   
    46    20    21 1   
    47    20    64 1   
    48    20    65 1   
    49    21    22 1   
    50    21    66 1   
    51    21    67 1   
    52    22    23 1   
    53    22    68 1   
    54    22    69 1   
    55    23    70 1   
    56    23    71 1   
    57    23    86 1   
    58    24    25 2   
    59    24    39 1   
    60    24    72 1   
    61    25    26 1   
    62    25    73 1   
    63    26    27 2   
    64    27    43 1   
    65    28    29 ar  
    66    28    31 ar  
    67    29    30 ar  
    68    29    74 1   
    69    30    33 ar  
    70    30    75 1   
    71    31    32 ar  
    72    32    33 ar  
    73    32    76 1   
    74    33    41 1   
    75    34    41 1   
    76    34    77 1   
    77    34    78 1   
    78    34    79 1   
    79    35    41 1   
    80    35    80 1   
    81    35    81 1   
    82    35    82 1   
    83    36    37 ar  
    84    37    83 1   
    85    38    39 2   
    86    38    84 1   
    87    39    87 1   
    88    40    85 1   
    89    40    87 1   
    90    42    87 2   
@<TRIPOS>SUBSTRUCTURE
     1 OEH         1 TEMP              0 ****  ****    0 ROOT
