@<TRIPOS>MOLECULE
OEH
   87    90     1     0     0
SMALL
abcg2


@<TRIPOS>ATOM
      1 C1         -18.0390    -9.0410    -7.3850 c3         1 OEH       0.206600
      2 C2         -18.3460    -8.8970    -9.7800 ca         1 OEH       0.430000
      3 C3         -19.1110    -8.5480   -10.9360 ca         1 OEH      -0.226000
      4 C4         -18.6270    -8.7680   -12.1880 ca         1 OEH       0.053000
      5 C5         -17.3550    -9.3450   -12.4060 ca         1 OEH      -0.206000
      6 C6         -16.8250    -9.6250   -13.6750 cc         1 OEH       0.342000
      7 C7         -17.5100    -9.1350   -14.8950 cd         1 OEH      -0.125000
      8 O1         -13.6930    -0.8970   -18.7930 os         1 OEH      -0.442000
      9 O3         -19.7820   -11.8570   -15.5890 o          1 OEH      -0.668500
     10 O5         -15.3820   -10.2130   -11.3710 os         1 OEH      -0.279000
     11 N          -18.8310    -8.6880    -8.5460 nh         1 OEH      -0.794400
     12 C          -20.1420    -8.0960    -8.3550 c3         1 OEH       0.206600
     13 O          -15.2790    -3.1340   -19.6240 os         1 OEH      -0.442000
     14 C11        -17.0820    -4.4410   -18.8200 c3         1 OEH       0.097000
     15 C12        -15.6150    -4.4360   -19.2250 c3         1 OEH       0.135600
     16 C13        -13.9390    -3.0020   -20.0290 c3         1 OEH       0.127600
     17 C14        -13.5590    -1.5340   -20.0380 c3         1 OEH       0.160600
     18 C15        -12.7290    -1.2690   -17.8350 c3         1 OEH       0.159600
     19 C16        -12.9700    -0.5050   -16.5480 c3         1 OEH      -0.073400
     20 C17        -12.8180     1.0060   -16.6650 c3         1 OEH      -0.071400
     21 C18        -13.0070     1.7060   -15.3240 c3         1 OEH      -0.077400
     22 C19        -12.8310     3.2150   -15.4170 c3         1 OEH      -0.084400
     23 C20        -13.1010     3.9590   -14.1300 c3         1 OEH       0.137600
     24 C21        -18.7470    -8.0820   -17.1430 cc         1 OEH      -0.154000
     25 C22        -19.1050    -9.3320   -16.6680 cd         1 OEH      -0.160000
     26 C23        -18.4880    -9.8800   -15.5510 cd         1 OEH      -0.071000
     27 C24        -18.8410   -11.2670   -15.0400 c          1 OEH       0.685000
     28 C25        -15.5230   -10.1440   -13.7560 ca         1 OEH      -0.206000
     29 C26        -14.8590   -10.4290   -14.9710 ca         1 OEH       0.053000
     30 C27        -13.6020   -10.9500   -14.9970 ca         1 OEH      -0.226000
     31 C28        -14.8200   -10.4400   -12.5700 ca         1 OEH       0.289000
     32 C29        -13.5480   -10.9640   -12.5670 ca         1 OEH      -0.271500
     33 C30        -12.8980   -11.2340   -13.7870 ca         1 OEH       0.430000
     34 C31        -10.9990   -12.0180   -15.0810 c3         1 OEH       0.206600
     35 C32        -10.9530   -12.0220   -12.5810 c3         1 OEH       0.206600
     36 C33        -16.6080    -9.6730   -11.2570 ca         1 OEH       0.289000
     37 C34        -17.0710    -9.4620    -9.9780 ca         1 OEH      -0.271500
     38 C8         -17.1580    -7.8740   -15.3580 cd         1 OEH      -0.132000
     39 C9         -17.7590    -7.3450   -16.4950 cc         1 OEH      -0.170200
     40 N1         -17.4730    -5.7080   -18.2460 ns         1 OEH      -0.503900
     41 N2         -11.6560   -11.7430   -13.8170 nh         1 OEH      -0.794400
     42 O2         -16.8810    -5.1760   -16.1340 o          1 OEH      -0.605100
     43 O4         -18.1220   -11.6700   -14.1020 o          1 OEH      -0.668500
     44 H1         -18.5950    -8.8050    -6.4840 h1         1 OEH       0.049450
     45 H2         -17.8070   -10.1080    -7.3670 h1         1 OEH       0.049450
     46 H3         -17.0990    -8.4850    -7.3560 h1         1 OEH       0.049450
     47 H4         -20.0890    -8.1040   -10.8310 ha         1 OEH       0.129000
     48 H5         -19.2330    -8.4940   -13.0410 ha         1 OEH       0.143000
     49 H6         -20.3490    -8.0270    -7.2920 h1         1 OEH       0.049450
     50 H7         -20.1970    -7.0890    -8.7730 h1         1 OEH       0.049450
     51 H8         -20.9280    -8.7020    -8.8090 h1         1 OEH       0.049450
     52 H9         -17.2690    -3.6490   -18.0950 h1         1 OEH       0.069700
     53 H10        -17.7160    -4.2500   -19.6860 h1         1 OEH       0.069700
     54 H11        -15.4510    -5.1630   -20.0330 h1         1 OEH       0.024700
     55 H12        -14.9960    -4.7550   -18.3750 h1         1 OEH       0.024700
     56 H13        -13.7840    -3.4050   -21.0400 h1         1 OEH       0.024200
     57 H14        -13.2740    -3.5700   -19.3640 h1         1 OEH       0.024200
     58 H15        -12.5320    -1.4530   -20.4230 h1         1 OEH       0.050200
     59 H16        -14.2060    -0.9940   -20.7340 h1         1 OEH       0.050200
     60 H17        -12.7710    -2.3440   -17.6200 h1         1 OEH       0.018200
     61 H18        -11.7160    -1.0620   -18.2120 h1         1 OEH       0.018200
     62 H19        -13.9640    -0.7510   -16.1620 hc         1 OEH       0.049200
     63 H20        -12.2560    -0.8830   -15.8100 hc         1 OEH       0.049200
     64 H21        -11.8230     1.2400   -17.0610 hc         1 OEH       0.043700
     65 H22        -13.5360     1.4020   -17.3870 hc         1 OEH       0.043700
     66 H23        -14.0060     1.4830   -14.9340 hc         1 OEH       0.045700
     67 H24        -12.2970     1.2960   -14.6010 hc         1 OEH       0.045700
     68 H25        -11.8290     3.4590   -15.7800 hc         1 OEH       0.050700
     69 H26        -13.5310     3.6190   -16.1560 hc         1 OEH       0.050700
     70 H27        -13.0050     5.0340   -14.2610 h1         1 OEH       0.062700
     71 H28        -14.0940     3.7400   -13.7400 h1         1 OEH       0.062700
     72 H30        -19.2640    -7.6840   -18.0080 ha         1 OEH       0.179000
     73 H31        -19.8770    -9.8980   -17.1720 ha         1 OEH       0.218000
     74 H32        -15.3650   -10.2290   -15.9060 ha         1 OEH       0.143000
     75 H33        -13.1450   -11.1480   -15.9550 ha         1 OEH       0.129000
     76 H34        -13.0740   -11.1580   -11.6160 ha         1 OEH       0.138500
     77 H35        -10.0080   -12.4140   -14.8880 h1         1 OEH       0.049450
     78 H36        -11.5440   -12.7580   -15.6690 h1         1 OEH       0.049450
     79 H37        -10.8860   -11.1140   -15.6820 h1         1 OEH       0.049450
     80 H38        -10.8260   -11.1200   -11.9790 h1         1 OEH       0.049450
     81 H39        -11.4770   -12.7660   -11.9770 h1         1 OEH       0.049450
     82 H40         -9.9670   -12.4120   -12.8080 h1         1 OEH       0.049450
     83 H41        -16.4370    -9.7380    -9.1490 ha         1 OEH       0.138500
     84 H42        -16.4030    -7.3000   -14.8350 ha         1 OEH       0.195000
     85 H43        -17.7180    -6.4480   -18.8830 hn         1 OEH       0.317500
     86 CL1        -11.9310     3.5010   -12.8290 cl         1 OEH      -0.303000
     87 C10        -17.3300    -5.9810   -16.9370 c          1 OEH       0.612300
@<TRIPOS>BOND
     1     1    11 1   
     2     1    44 1   
     3     1    45 1   
     4     1    46 1   
     5     2     3 ar  
     6     2    11 1   
     7     2    37 ar  
     8     3     4 ar  
     9     3    47 1   
    10     4     5 ar  
    11     4    48 1   
    12     5     6 1   
    13     5    36 ar  
    14     6     7 2   
    15     6    28 1   
    16     7    26 1   
    17     7    38 1   
    18     8    17 1   
    19     8    18 1   
    20     9    27 1   
    21    10    31 1   
    22    10    36 1   
    23    11    12 1   
    24    12    49 1   
    25    12    50 1   
    26    12    51 1   
    27    13    15 1   
    28    13    16 1   
    29    14    15 1   
    30    14    40 1   
    31    14    52 1   
    32    14    53 1   
    33    15    54 1   
    34    15    55 1   
    35    16    17 1   
    36    16    56 1   
    37    16    57 1   
    38    17    58 1   
    39    17    59 1   
    40    18    19 1   
    41    18    60 1   
    42    18    61 1   
    43    19    20 1   
    44    19    62 1   
    45    19    63 1   
    46    20    21 1   
    47    20    64 1   
    48    20    65 1   
    49    21    22 1   
    50    21    66 1   
    51    21    67 1   
    52    22    23 1   
    53    22    68 1   
    54    22    69 1   
    55    23    70 1   
    56    23    71 1   
    57    23    86 1   
    58    24    25 2   
    59    24    39 1   
    60    24    72 1   
    61    25    26 1   
    62    25    73 1   
    63    26    27 2   
    64    27    43 1   
    65    28    29 ar  
    66    28    31 ar  
    67    29    30 ar  
    68    29    74 1   
    69    30    33 ar  
    70    30    75 1   
    71    31    32 ar  
    72    32    33 ar  
    73    32    76 1   
    74    33    41 1   
    75    34    41 1   
    76    34    77 1   
    77    34    78 1   
    78    34    79 1   
    79    35    41 1   
    80    35    80 1   
    81    35    81 1   
    82    35    82 1   
    83    36    37 ar  
    84    37    83 1   
    85    38    39 2   
    86    38    84 1   
    87    39    87 1   
    88    40    85 1   
    89    40    87 1   
    90    42    87 2   
@<TRIPOS>SUBSTRUCTURE
     1 OEH         1 TEMP              0 ****  ****    0 ROOT
