@<TRIPOS>MOLECULE
OEI
   24    24     1     0     0
SMALL
No Charge or Current Charge


@<TRIPOS>ATOM
      1 C10         13.6750   -25.3510    15.1270 ca         1 OEI      -0.115500
      2 C02         19.4410   -21.6350    15.3300 c3         1 OEI       0.157600
      3 C03         19.1780   -23.1230    15.6960 c3         1 OEI       0.158800
      4 C05         17.4650   -24.9330    15.5730 c3         1 OEI       0.205100
      5 C06         16.1120   -25.2870    14.9710 ca         1 OEI      -0.088300
      6 C07         16.0350   -25.8890    13.6990 ca         1 OEI      -0.094500
      7 C08         14.7860   -26.2200    13.1450 ca         1 OEI      -0.115500
      8 C09         13.6060   -25.9520    13.8590 ca         1 OEI      -0.108000
      9 C11         14.9240   -25.0190    15.6820 ca         1 OEI      -0.094500
     10 N04         17.9010   -23.6020    15.1190 n7         1 OEI      -0.861400
     11 O01         18.3640   -20.7940    15.7870 oh         1 OEI      -0.669000
     12 H101        12.7620   -25.1420    15.6800 ha         1 OEI       0.111000
     13 H022        20.3890   -21.3210    15.7880 h1         1 OEI       0.027200
     14 H021        19.5550   -21.5500    14.2410 h1         1 OEI       0.027200
     15 H031        19.1580   -23.2080    16.7910 h1         1 OEI       0.034700
     16 H032        20.0160   -23.7340    15.3340 h1         1 OEI       0.034700
     17 H051        18.2000   -25.6970    15.2820 h1         1 OEI       0.033700
     18 H052        17.3870   -24.9570    16.6690 h1         1 OEI       0.033700
     19 H071        16.9450   -26.0970    13.1410 ha         1 OEI       0.114500
     20 H081        14.7340   -26.6850    12.1630 ha         1 OEI       0.111000
     21 H091        12.6390   -26.2080    13.4300 ha         1 OEI       0.110000
     22 H111        14.9690   -24.5540    16.6640 ha         1 OEI       0.114500
     23 H041        17.1830   -22.9220    15.3970 hn         1 OEI       0.427000
     24 H011        18.5770   -19.8780    15.5020 ho         1 OEI       0.445000
@<TRIPOS>BOND
     1     1     8 ar  
     2     1     9 ar  
     3     1    12 1   
     4     2     3 1   
     5     2    11 1   
     6     2    13 1   
     7     2    14 1   
     8     3    10 1   
     9     3    15 1   
    10     3    16 1   
    11     4     5 1   
    12     4    10 1   
    13     4    17 1   
    14     4    18 1   
    15     5     6 ar  
    16     5     9 ar  
    17     6     7 ar  
    18     6    19 1   
    19     7     8 ar  
    20     7    20 1   
    21     8    21 1   
    22     9    22 1   
    23    10    23 1   
    24    11    24 1   
@<TRIPOS>SUBSTRUCTURE
     1 OEI         1 TEMP              0 ****  ****    0 ROOT
