@<TRIPOS>MOLECULE
OEI
   24    24     1     0     0
SMALL
abcg2


@<TRIPOS>ATOM
      1 C10         13.6860   -25.6860    15.1760 ca         1 OEI      -0.115500
      2 C02         19.5230   -21.7770    15.1920 c3         1 OEI       0.157600
      3 C03         19.0830   -23.1150    15.7420 c3         1 OEI       0.158800
      4 C05         17.3380   -24.7810    15.7350 c3         1 OEI       0.205100
      5 C06         16.0560   -25.2130    15.0750 ca         1 OEI      -0.088300
      6 C07         16.0370   -25.5260    13.7160 ca         1 OEI      -0.094500
      7 C08         14.8620   -25.9210    13.0970 ca         1 OEI      -0.115500
      8 C09         13.6800   -26.0020    13.8260 ca         1 OEI      -0.108000
      9 C11         14.8680   -25.2920    15.7940 ca         1 OEI      -0.094500
     10 N04         17.8280   -23.5440    15.1570 n7         1 OEI      -0.861400
     11 O01         18.5860   -20.7970    15.5880 oh         1 OEI      -0.669000
     12 H101        12.7710   -25.7430    15.7520 ha         1 OEI       0.111000
     13 H022        20.5270   -21.5530    15.5720 h1         1 OEI       0.027200
     14 H021        19.5960   -21.8460    14.0990 h1         1 OEI       0.027200
     15 H031        19.0470   -23.0600    16.8430 h1         1 OEI       0.034700
     16 H032        19.8550   -23.8510    15.4970 h1         1 OEI       0.034700
     17 H051        18.1020   -25.5500    15.5810 h1         1 OEI       0.033700
     18 H052        17.1870   -24.7150    16.8230 h1         1 OEI       0.033700
     19 H071        16.9540   -25.4660    13.1410 ha         1 OEI       0.114500
     20 H081        14.8650   -26.1670    12.0420 ha         1 OEI       0.111000
     21 H091        12.7620   -26.3110    13.3420 ha         1 OEI       0.110000
     22 H111        14.8650   -25.0440    16.8490 ha         1 OEI       0.114500
     23 H041        17.1340   -22.8200    15.3020 hn         1 OEI       0.427000
     24 H011        18.7900   -19.9770    15.1280 ho         1 OEI       0.445000
@<TRIPOS>BOND
     1     1     8 ar  
     2     1     9 ar  
     3     1    12 1   
     4     2     3 1   
     5     2    11 1   
     6     2    13 1   
     7     2    14 1   
     8     3    10 1   
     9     3    15 1   
    10     3    16 1   
    11     4     5 1   
    12     4    10 1   
    13     4    17 1   
    14     4    18 1   
    15     5     6 ar  
    16     5     9 ar  
    17     6     7 ar  
    18     6    19 1   
    19     7     8 ar  
    20     7    20 1   
    21     8    21 1   
    22     9    22 1   
    23    10    23 1   
    24    11    24 1   
@<TRIPOS>SUBSTRUCTURE
     1 OEI         1 TEMP              0 ****  ****    0 ROOT
