@<TRIPOS>MOLECULE
OEJ
   48    51     1     0     0
SMALL
abcg2


@<TRIPOS>ATOM
      1 C14          1.8110    -0.8080     0.7750 c          1 OEJ       0.593700
      2 C13         -1.2160     1.1880     1.9320 ca         1 OEJ      -0.127000
      3 C1          -5.6990     0.9260    -0.7910 cc         1 OEJ       0.149400
      4 C6          -4.5880     2.2320     0.6280 cc         1 OEJ      -0.195000
      5 C5          -4.4370     0.9650     1.1100 cd         1 OEJ      -0.045300
      6 C4          -6.6830    -0.7360    -1.8920 cd         1 OEJ       0.713800
      7 C3          -5.4310    -1.2790     0.1530 c          1 OEJ       0.624600
      8 C2          -5.1500     0.1150     0.2030 cd         1 OEJ      -0.286600
      9 C7          -3.6280     0.5660     2.3070 c3         1 OEJ       0.044200
     10 C10         -0.5660    -1.3880     1.1800 ca         1 OEJ      -0.073500
     11 C11          0.4230    -0.4070     1.1640 ca         1 OEJ      -0.114600
     12 C12          0.0820     0.8880     1.5510 ca         1 OEJ      -0.073500
     13 C15          3.9050     0.1860    -0.1180 ca         1 OEJ      -0.044000
     14 C16          4.7440    -0.9230     0.0190 ca         1 OEJ      -0.134000
     15 C17          6.0680    -0.8840    -0.3980 ca         1 OEJ      -0.133600
     16 C18          6.5650     0.2840    -0.9660 ca         1 OEJ      -0.139000
     17 C19          5.7410     1.3870    -1.1010 ca         1 OEJ      -0.100000
     18 C20          4.4120     1.3760    -0.6890 ca         1 OEJ      -0.215600
     19 C21          3.5920     2.6470    -0.8750 c          1 OEJ       0.725600
     20 C22          6.9570    -2.1130    -0.2300 c          1 OEJ       0.713600
     21 C8          -2.2100     0.2130     1.9300 ca         1 OEJ      -0.096300
     22 C9          -1.8650    -1.0800     1.5470 ca         1 OEJ      -0.127000
     23 N1          -6.4500     0.5460    -1.8430 nc         1 OEJ      -0.712100
     24 N2          -6.2130    -1.6120    -0.9580 ns         1 OEJ      -0.454400
     25 N3          -5.3480     2.1980    -0.5210 na         1 OEJ      -0.106000
     26 N4          -7.4580    -1.2490    -2.8690 nv         1 OEJ      -1.045200
     27 N5           2.5730     0.1970     0.2960 ns         1 OEJ      -0.151000
     28 O1          -5.0910    -2.1570     0.9360 o          1 OEJ      -0.549000
     29 O2           2.1710    -1.9720     0.8900 o          1 OEJ      -0.632100
     30 O3           4.1490     3.6110    -1.4150 o          1 OEJ      -0.737500
     31 O4           2.3970     2.6360    -0.4670 o          1 OEJ      -0.737500
     32 O5           6.4410    -3.1100     0.3110 o          1 OEJ      -0.743000
     33 O6           8.1260    -2.0140    -0.6490 o          1 OEJ      -0.743000
     34 H1          -1.4570     2.1990     2.2400 ha         1 OEJ       0.103000
     35 H3          -3.6140     1.3920     3.0210 hc         1 OEJ       0.047700
     36 H4          -4.0970    -0.2800     2.8110 hc         1 OEJ       0.047700
     37 H5          -0.3180    -2.4030     0.8970 ha         1 OEJ       0.140000
     38 H6           0.8260     1.6740     1.5860 ha         1 OEJ       0.140000
     39 H7           4.3690    -1.8330     0.4540 ha         1 OEJ       0.148000
     40 H8           7.5930     0.3280    -1.2980 ha         1 OEJ       0.106000
     41 H9           6.1310     2.2950    -1.5390 ha         1 OEJ       0.104000
     42 H10         -2.6230    -1.8530     1.5350 ha         1 OEJ       0.103000
     43 H11         -6.4620    -2.5890    -1.0420 hn         1 OEJ       0.314500
     44 H12         -5.6070     3.0000    -1.0730 hn         1 OEJ       0.352000
     45 H13         -7.3940    -2.2280    -3.0950 hn         1 OEJ       0.485000
     46 H14         -7.6580    -0.6430    -3.6470 hn         1 OEJ       0.485000
     47 H15          2.1600     1.1310     0.1080 hn         1 OEJ       0.223000
     48 H2          -4.2090     3.1660     1.0080 h4         1 OEJ       0.152000
@<TRIPOS>BOND
     1     1    11 1   
     2     1    27 1   
     3     1    29 2   
     4     2    12 ar  
     5     2    21 ar  
     6     2    34 1   
     7     3     8 2   
     8     3    23 1   
     9     3    25 1   
    10     4     5 2   
    11     4    25 1   
    12     4    48 1   
    13     5     8 1   
    14     5     9 1   
    15     6    23 2   
    16     6    24 1   
    17     6    26 1   
    18     7     8 1   
    19     7    24 1   
    20     7    28 2   
    21     9    21 1   
    22     9    35 1   
    23     9    36 1   
    24    10    11 ar  
    25    10    22 ar  
    26    10    37 1   
    27    11    12 ar  
    28    12    38 1   
    29    13    14 ar  
    30    13    18 ar  
    31    13    27 1   
    32    14    15 ar  
    33    14    39 1   
    34    15    16 ar  
    35    15    20 1   
    36    16    17 ar  
    37    16    40 1   
    38    17    18 ar  
    39    17    41 1   
    40    18    19 1   
    41    19    30 1   
    42    19    31 1   
    43    20    32 1   
    44    20    33 1   
    45    21    22 ar  
    46    22    42 1   
    47    24    43 1   
    48    25    44 1   
    49    26    45 1   
    50    26    46 1   
    51    27    47 1   
@<TRIPOS>SUBSTRUCTURE
     1 OEJ         1 TEMP              0 ****  ****    0 ROOT
