@<TRIPOS>MOLECULE
OEJ
   48    51     1     0     0
SMALL
No Charge or Current Charge


@<TRIPOS>ATOM
      1 C14          1.8210    -0.9350     0.6130 c          1 OEJ       0.593700
      2 C13         -1.3530     1.0810     1.4960 ca         1 OEJ      -0.127000
      3 C1          -5.8920     1.0760    -0.6760 cc         1 OEJ       0.149400
      4 C6          -4.6790     2.2840     0.8220 cc         1 OEJ      -0.195000
      5 C5          -4.5250     0.9490     1.1200 cd         1 OEJ      -0.045300
      6 C4          -6.8490    -0.5960    -1.8100 cd         1 OEJ       0.713800
      7 C3          -5.4910    -1.2490     0.0270 c          1 OEJ       0.624600
      8 C2          -5.2880     0.2040     0.1800 cd         1 OEJ      -0.286600
      9 C7          -3.6820     0.3960     2.2450 c3         1 OEJ       0.044200
     10 C10         -0.5110    -1.5870     1.3630 ca         1 OEJ      -0.073500
     11 C11          0.4060    -0.5630     1.0300 ca         1 OEJ      -0.114600
     12 C12         -0.0360     0.7810     1.1040 ca         1 OEJ      -0.073500
     13 C15          4.0240     0.1880    -0.1190 ca         1 OEJ      -0.044000
     14 C16          4.9230    -0.8680     0.1580 ca         1 OEJ      -0.134000
     15 C17          6.2850    -0.8010    -0.2200 ca         1 OEJ      -0.133600
     16 C18          6.7350     0.3590    -0.8860 ca         1 OEJ      -0.139000
     17 C19          5.8570     1.4180    -1.1560 ca         1 OEJ      -0.100000
     18 C20          4.4990     1.3560    -0.7740 ca         1 OEJ      -0.215600
     19 C21          3.5950     2.5370    -1.0910 c          1 OEJ       0.725600
     20 C22          7.2430    -1.9490     0.0880 c          1 OEJ       0.713600
     21 C8          -2.2570     0.0550     1.8220 ca         1 OEJ      -0.096300
     22 C9          -1.8250    -1.2810     1.7540 ca         1 OEJ      -0.127000
     23 N1          -6.7060     0.7030    -1.7160 nc         1 OEJ      -0.712100
     24 N2          -6.3010    -1.5380    -1.0220 ns         1 OEJ      -0.454400
     25 N3          -5.5260     2.3520    -0.2900 na         1 OEJ      -0.106000
     26 N4          -7.6190    -1.0110    -2.8030 nv         1 OEJ      -1.045200
     27 N5           2.6520     0.1210     0.2600 ns         1 OEJ      -0.151000
     28 O1          -5.0120    -2.1170     0.7390 o          1 OEJ      -0.549000
     29 O2           2.1820    -2.1090     0.5820 o          1 OEJ      -0.632100
     30 O3           3.7940     3.1540    -2.1270 o          1 OEJ      -0.737500
     31 O4           2.7210     2.8390    -0.2930 o          1 OEJ      -0.737500
     32 O5           6.8250    -2.9140     0.7140 o          1 OEJ      -0.743000
     33 O6           8.4020    -1.8690    -0.2980 o          1 OEJ      -0.743000
     34 H1          -1.6710     2.1200     1.5460 ha         1 OEJ       0.103000
     35 H3          -3.6450     1.1300     3.0590 hc         1 OEJ       0.047700
     36 H4          -4.1730    -0.4820     2.6810 hc         1 OEJ       0.047700
     37 H5          -0.2070    -2.6320     1.3200 ha         1 OEJ       0.140000
     38 H6           0.6240     1.6100     0.8660 ha         1 OEJ       0.140000
     39 H7           4.5780    -1.7520     0.6850 ha         1 OEJ       0.148000
     40 H8           7.7750     0.4480    -1.1930 ha         1 OEJ       0.106000
     41 H9           6.2400     2.3020    -1.6620 ha         1 OEJ       0.104000
     42 H10         -2.5090    -2.0890     2.0040 ha         1 OEJ       0.103000
     43 H11         -6.5010    -2.5100    -1.1790 hn         1 OEJ       0.314500
     44 H12         -5.8320     3.1990    -0.7540 hn         1 OEJ       0.352000
     45 H13         -7.4200    -1.9260    -3.1880 hn         1 OEJ       0.485000
     46 H14         -7.8470    -0.2930    -3.4790 hn         1 OEJ       0.485000
     47 H15          2.2040     1.0300     0.2760 hn         1 OEJ       0.223000
     48 H2          -4.2640     3.1650     1.2950 h4         1 OEJ       0.152000
@<TRIPOS>BOND
     1     1    11 1   
     2     1    27 1   
     3     1    29 2   
     4     2    12 ar  
     5     2    21 ar  
     6     2    34 1   
     7     3     8 2   
     8     3    23 1   
     9     3    25 1   
    10     4     5 2   
    11     4    25 1   
    12     4    48 1   
    13     5     8 1   
    14     5     9 1   
    15     6    23 2   
    16     6    24 1   
    17     6    26 1   
    18     7     8 1   
    19     7    24 1   
    20     7    28 2   
    21     9    21 1   
    22     9    35 1   
    23     9    36 1   
    24    10    11 ar  
    25    10    22 ar  
    26    10    37 1   
    27    11    12 ar  
    28    12    38 1   
    29    13    14 ar  
    30    13    18 ar  
    31    13    27 1   
    32    14    15 ar  
    33    14    39 1   
    34    15    16 ar  
    35    15    20 1   
    36    16    17 ar  
    37    16    40 1   
    38    17    18 ar  
    39    17    41 1   
    40    18    19 1   
    41    19    30 1   
    42    19    31 1   
    43    20    32 1   
    44    20    33 1   
    45    21    22 ar  
    46    22    42 1   
    47    24    43 1   
    48    25    44 1   
    49    26    45 1   
    50    26    46 1   
    51    27    47 1   
@<TRIPOS>SUBSTRUCTURE
     1 OEJ         1 TEMP              0 ****  ****    0 ROOT
