@<TRIPOS>MOLECULE
OEK
   95    98     1     0     0
SMALL
No Charge or Current Charge


@<TRIPOS>ATOM
      1 N          -56.9900    66.1190    49.0920 nh         1 OEK      -0.339200
      2 N1         -60.1850    60.4850    40.6050 ns         1 OEK      -0.503900
      3 C2         -60.0720    64.1540    48.3180 cc         1 OEK       0.074800
      4 O2         -60.1650    59.4780    42.6360 o          1 OEK      -0.604100
      5 C3         -59.1180    64.8800    49.0180 cd         1 OEK      -0.392600
      6 C4         -57.9490    65.3860    48.3650 cd         1 OEK       0.417900
      7 C5         -56.8940    66.0450    50.5640 c3         1 OEK       0.060650
      8 C6         -56.0170    67.0080    48.4270 c3         1 OEK       0.060650
      9 C          -60.7980    62.6550    50.2050 c3         1 OEK      -0.079100
     10 O          -60.9720    57.2760    38.8590 os         1 OEK      -0.442000
     11 C1         -61.2980    63.5850    49.0480 c6         1 OEK       0.014500
     12 C10        -60.8220    63.2080    46.1740 cf         1 OEK       0.391600
     13 C11        -60.8240    63.1750    44.6870 ca         1 OEK      -0.142800
     14 C12        -60.5970    61.9430    44.0340 ca         1 OEK      -0.063000
     15 C13        -60.5080    61.8560    42.6280 ca         1 OEK      -0.169600
     16 C14        -60.2730    60.5050    41.9800 c          1 OEK       0.613700
     17 C15        -59.9940    59.2740    39.7930 c3         1 OEK       0.099000
     18 C16        -61.2580    58.3920    39.7190 c3         1 OEK       0.132600
     19 C17        -62.0650    56.3520    38.6970 c3         1 OEK       0.126600
     20 C18        -61.6200    55.1970    37.7570 c3         1 OEK       0.163600
     21 C19        -60.9170    53.6330    39.5100 c3         1 OEK       0.158600
     22 C20        -59.6970    52.7790    39.9140 c3         1 OEK      -0.074400
     23 C21        -59.2970    51.7180    38.8610 c3         1 OEK      -0.072400
     24 C22        -58.0970    50.8510    39.3040 c3         1 OEK      -0.077400
     25 C23        -57.6980    49.7900    38.2500 c3         1 OEK      -0.084400
     26 C24        -56.4740    48.9380    38.6490 c3         1 OEK       0.136600
     27 C25        -60.6340    63.0440    41.8730 ca         1 OEK      -0.089000
     28 C26        -60.8430    64.2760    42.5120 ca         1 OEK      -0.089000
     29 C27        -60.9400    64.3620    43.9160 ca         1 OEK      -0.096600
     30 C28        -61.2060    65.7160    44.5490 c          1 OEK       0.702600
     31 C29        -62.0480    62.6100    46.7670 ca         1 OEK      -0.187300
     32 C30        -63.0230    61.9240    45.9980 ca         1 OEK       0.044500
     33 C31        -64.1610    61.3740    46.5980 ca         1 OEK      -0.226000
     34 C32        -62.0920    64.7760    49.6810 c3         1 OEK      -0.079100
     35 C33        -62.2720    62.7720    48.1530 ca         1 OEK       0.071700
     36 C34        -63.4310    62.2040    48.7340 ca         1 OEK      -0.238000
     37 C35        -64.3730    61.4990    47.9740 ca         1 OEK       0.410000
     38 C36        -66.8030    60.8110    47.8480 c3         1 OEK       0.208850
     39 C37        -65.4940    60.4480    49.9810 c3         1 OEK       0.208850
     40 C7         -57.7510    65.1300    46.9760 cd         1 OEK      -0.380600
     41 C8         -58.6980    64.4140    46.2830 cc         1 OEK      -0.023500
     42 C9         -59.9050    63.9160    46.9040 cc         1 OEK      -0.175500
     43 N2         -65.5230    60.9410    48.5830 nh         1 OEK      -0.800900
     44 O1         -60.5590    54.4110    38.3520 os         1 OEK      -0.443000
     45 O3         -60.5950    66.6800    44.1100 o          1 OEK      -0.656000
     46 O4         -62.0660    65.7930    45.4130 o          1 OEK      -0.656000
     47 H1         -60.2790    61.3730    40.1300 hn         1 OEK       0.316500
     48 H2         -59.2570    65.0750    50.0720 ha         1 OEK       0.185500
     49 H3         -55.9080    66.3790    50.9110 h1         1 OEK       0.046700
     50 H4         -57.6590    66.6800    51.0260 h1         1 OEK       0.046700
     51 H5         -57.0370    65.0110    50.9050 h1         1 OEK       0.046700
     52 H6         -55.6160    67.7500    49.1300 h1         1 OEK       0.046700
     53 H7         -55.1800    66.4210    48.0260 h1         1 OEK       0.046700
     54 H8         -56.4950    67.5520    47.6020 h1         1 OEK       0.046700
     55 H9         -60.1390    63.1760    50.9070 hc         1 OEK       0.046033
     56 H10        -61.6210    62.2480    50.8030 hc         1 OEK       0.046033
     57 H11        -60.2370    61.8030    49.8020 hc         1 OEK       0.046033
     58 H13        -60.4760    61.0440    44.6360 ha         1 OEK       0.130000
     59 H14        -59.1670    58.6880    40.2160 h1         1 OEK       0.069700
     60 H15        -59.7080    59.5770    38.7770 h1         1 OEK       0.069700
     61 H16        -62.0930    58.9830    39.3200 h1         1 OEK       0.025200
     62 H17        -61.5280    58.0450    40.7250 h1         1 OEK       0.025200
     63 H18        -62.9230    56.8610    38.2400 h1         1 OEK       0.023200
     64 H19        -62.3930    55.9540    39.6650 h1         1 OEK       0.023200
     65 H20        -62.4880    54.5620    37.5340 h1         1 OEK       0.050200
     66 H21        -61.2800    55.6310    36.8070 h1         1 OEK       0.050200
     67 H22        -61.1850    54.2830    40.3530 h1         1 OEK       0.020700
     68 H23        -61.7700    52.9760    39.2930 h1         1 OEK       0.020700
     69 H24        -59.9290    52.2730    40.8590 hc         1 OEK       0.048700
     70 H25        -58.8460    53.4410    40.1130 hc         1 OEK       0.048700
     71 H26        -59.0480    52.2180    37.9170 hc         1 OEK       0.043200
     72 H27        -60.1580    51.0680    38.6610 hc         1 OEK       0.043200
     73 H28        -58.3480    50.3530    40.2490 hc         1 OEK       0.045700
     74 H29        -57.2370    51.5020    39.5040 hc         1 OEK       0.045700
     75 H30        -57.4710    50.2980    37.3050 hc         1 OEK       0.050700
     76 H31        -58.5490    49.1260    38.0550 hc         1 OEK       0.050700
     77 H32        -56.1900    48.2770    37.8200 h1         1 OEK       0.062700
     78 H33        -55.6190    49.5820    38.8960 h1         1 OEK       0.062700
     79 H35        -60.5720    63.0350    40.7880 ha         1 OEK       0.111000
     80 H36        -60.9400    65.1770    41.9080 ha         1 OEK       0.149000
     81 H37        -62.9350    61.8070    44.9220 ha         1 OEK       0.137000
     82 H38        -64.8750    60.8390    45.9800 ha         1 OEK       0.125500
     83 H39        -61.4770    65.3730    50.3650 hc         1 OEK       0.046033
     84 H40        -62.4620    65.4520    48.9010 hc         1 OEK       0.046033
     85 H41        -62.9590    64.4410    50.2600 hc         1 OEK       0.046033
     86 H42        -63.6170    62.3300    49.7930 ha         1 OEK       0.117500
     87 H43        -67.6540    60.8140    48.5420 h1         1 OEK       0.046700
     88 H44        -66.9390    61.6540    47.1560 h1         1 OEK       0.046700
     89 H45        -66.8260    59.8760    47.2740 h1         1 OEK       0.046700
     90 H46        -65.7190    61.2640    50.6820 h1         1 OEK       0.046700
     91 H47        -66.2330    59.6490    50.1290 h1         1 OEK       0.046700
     92 H48        -64.5070    60.0350    50.2260 h1         1 OEK       0.046700
     93 H49        -56.8630    65.4780    46.4620 ha         1 OEK       0.193500
     94 H50        -58.5250    64.2140    45.2260 ha         1 OEK       0.205000
     95 Cl1        -56.8170    47.8810    40.0910 cl         1 OEK      -0.303000
@<TRIPOS>BOND
     1     1     6 2   
     2     1     7 1   
     3     1     8 1   
     4     2    16 1   
     5     2    17 1   
     6     2    47 1   
     7     3     5 2   
     8     3    11 1   
     9     3    42 1   
    10     4    16 2   
    11     5     6 1   
    12     5    48 1   
    13     6    40 1   
    14     7    49 1   
    15     7    50 1   
    16     7    51 1   
    17     8    52 1   
    18     8    53 1   
    19     8    54 1   
    20     9    11 1   
    21     9    55 1   
    22     9    56 1   
    23     9    57 1   
    24    10    18 1   
    25    10    19 1   
    26    11    34 1   
    27    11    35 1   
    28    12    13 1   
    29    12    31 1   
    30    12    42 2   
    31    13    14 ar  
    32    13    29 ar  
    33    14    15 ar  
    34    14    58 1   
    35    15    16 1   
    36    15    27 ar  
    37    17    18 1   
    38    17    59 1   
    39    17    60 1   
    40    18    61 1   
    41    18    62 1   
    42    19    20 1   
    43    19    63 1   
    44    19    64 1   
    45    20    44 1   
    46    20    65 1   
    47    20    66 1   
    48    21    22 1   
    49    21    44 1   
    50    21    67 1   
    51    21    68 1   
    52    22    23 1   
    53    22    69 1   
    54    22    70 1   
    55    23    24 1   
    56    23    71 1   
    57    23    72 1   
    58    24    25 1   
    59    24    73 1   
    60    24    74 1   
    61    25    26 1   
    62    25    75 1   
    63    25    76 1   
    64    26    77 1   
    65    26    78 1   
    66    26    95 1   
    67    27    28 ar  
    68    27    79 1   
    69    28    29 ar  
    70    28    80 1   
    71    29    30 1   
    72    30    45 1   
    73    30    46 1   
    74    31    32 ar  
    75    31    35 ar  
    76    32    33 ar  
    77    32    81 1   
    78    33    37 ar  
    79    33    82 1   
    80    34    83 1   
    81    34    84 1   
    82    34    85 1   
    83    35    36 ar  
    84    36    37 ar  
    85    36    86 1   
    86    37    43 1   
    87    38    43 1   
    88    38    87 1   
    89    38    88 1   
    90    38    89 1   
    91    39    43 1   
    92    39    90 1   
    93    39    91 1   
    94    39    92 1   
    95    40    41 2   
    96    40    93 1   
    97    41    42 1   
    98    41    94 1   
@<TRIPOS>SUBSTRUCTURE
     1 OEK         1 TEMP              0 ****  ****    0 ROOT
