@<TRIPOS>MOLECULE
OEK
   95    98     1     0     0
SMALL
abcg2


@<TRIPOS>ATOM
      1 N          -56.5650    64.4530    48.6950 nh         1 OEK      -0.339200
      2 N1         -60.9130    60.8310    40.4100 ns         1 OEK      -0.503900
      3 C2         -60.0330    63.5080    47.9590 cc         1 OEK       0.074800
      4 O2         -59.7350    60.2310    42.2400 o          1 OEK      -0.604100
      5 C3         -58.8630    63.7530    48.6420 cd         1 OEK      -0.392600
      6 C4         -57.6900    64.2130    48.0000 cd         1 OEK       0.417900
      7 C5         -56.5230    64.2290    50.1260 c3         1 OEK       0.060650
      8 C6         -55.3830    64.9590    48.0250 c3         1 OEK       0.060650
      9 C          -60.8900    61.7860    49.5410 c3         1 OEK      -0.079100
     10 O          -61.3570    57.3880    39.2670 os         1 OEK      -0.442000
     11 C1         -61.2520    63.0500    48.7380 c6         1 OEK       0.014500
     12 C10        -61.2680    63.5070    45.8340 cf         1 OEK       0.391600
     13 C11        -61.2190    63.5410    44.3490 ca         1 OEK      -0.142800
     14 C12        -60.8600    62.3750    43.6870 ca         1 OEK      -0.063000
     15 C13        -60.8260    62.3340    42.2970 ca         1 OEK      -0.169600
     16 C14        -60.4390    61.0390    41.6520 c          1 OEK       0.613700
     17 C15        -60.6600    59.6180    39.6690 c3         1 OEK       0.099000
     18 C16        -61.6730    58.5340    40.0110 c3         1 OEK       0.132600
     19 C17        -62.2220    56.3100    39.5230 c3         1 OEK       0.126600
     20 C18        -61.7420    55.0860    38.7700 c3         1 OEK       0.163600
     21 C19        -60.3100    54.1240    40.3930 c3         1 OEK       0.158600
     22 C20        -58.9460    53.4800    40.5330 c3         1 OEK      -0.074400
     23 C21        -58.7150    52.2940    39.6050 c3         1 OEK      -0.072400
     24 C22        -57.3640    51.6300    39.8380 c3         1 OEK      -0.077400
     25 C23        -57.1350    50.4370    38.9210 c3         1 OEK      -0.084400
     26 C24        -55.7810    49.7810    39.0690 c3         1 OEK       0.136600
     27 C25        -61.1230    63.4890    41.5770 ca         1 OEK      -0.089000
     28 C26        -61.4650    64.6540    42.2420 ca         1 OEK      -0.089000
     29 C27        -61.5270    64.6910    43.6300 ca         1 OEK      -0.096600
     30 C28        -61.9200    65.9420    44.3910 c          1 OEK       0.702600
     31 C29        -62.4230    62.9910    46.4610 ca         1 OEK      -0.187300
     32 C30        -63.5930    62.7240    45.7160 ca         1 OEK       0.044500
     33 C31        -64.7290    62.2390    46.2910 ca         1 OEK      -0.226000
     34 C32        -61.6540    64.1890    49.7000 c3         1 OEK      -0.079100
     35 C33        -62.4490    62.7510    47.8530 ca         1 OEK       0.071700
     36 C34        -63.5970    62.2570    48.4320 ca         1 OEK      -0.238000
     37 C35        -64.7660    61.9810    47.6870 ca         1 OEK       0.410000
     38 C36        -67.0700    61.2510    47.4980 c3         1 OEK       0.208850
     39 C37        -65.8770    61.1940    49.6940 c3         1 OEK       0.208850
     40 C7         -57.7460    64.4120    46.5960 cd         1 OEK      -0.380600
     41 C8         -58.9030    64.1660    45.9170 cc         1 OEK      -0.023500
     42 C9         -60.0750    63.7140    46.5620 cc         1 OEK      -0.175500
     43 N2         -65.8700    61.4910    48.2760 nh         1 OEK      -0.800900
     44 O1         -60.4440    54.6660    39.0980 os         1 OEK      -0.443000
     45 O3         -62.1790    66.9630    43.7390 o          1 OEK      -0.656000
     46 O4         -61.9420    65.7990    45.6340 o          1 OEK      -0.656000
     47 H1         -61.5980    61.4650    40.0320 hn         1 OEK       0.316500
     48 H2         -58.8430    63.5980    49.7100 ha         1 OEK       0.185500
     49 H3         -55.5220    64.4340    50.4920 h1         1 OEK       0.046700
     50 H4         -57.2160    64.8820    50.6600 h1         1 OEK       0.046700
     51 H5         -56.7630    63.1940    50.3770 h1         1 OEK       0.046700
     52 H6         -54.5960    65.1120    48.7560 h1         1 OEK       0.046700
     53 H7         -55.0110    64.2590    47.2740 h1         1 OEK       0.046700
     54 H8         -55.5740    65.9160    47.5360 h1         1 OEK       0.046700
     55 H9         -60.0700    61.9790    50.2310 hc         1 OEK       0.046033
     56 H10        -61.7340    61.4470    50.1390 hc         1 OEK       0.046033
     57 H11        -60.5930    60.9730    48.8790 hc         1 OEK       0.046033
     58 H13        -60.6180    61.4860    44.2550 ha         1 OEK       0.130000
     59 H14        -59.6500    59.2690    39.8830 h1         1 OEK       0.069700
     60 H15        -60.7080    59.8550    38.6060 h1         1 OEK       0.069700
     61 H16        -62.6870    58.8920    39.7820 h1         1 OEK       0.025200
     62 H17        -61.6420    58.3250    41.0890 h1         1 OEK       0.025200
     63 H18        -63.2460    56.5320    39.1910 h1         1 OEK       0.023200
     64 H19        -62.2830    56.1100    40.6020 h1         1 OEK       0.023200
     65 H20        -62.4750    54.2830    38.9400 h1         1 OEK       0.050200
     66 H21        -61.7380    55.2980    37.6980 h1         1 OEK       0.050200
     67 H22        -60.4250    54.9000    41.1610 h1         1 OEK       0.020700
     68 H23        -61.0960    53.3760    40.5780 h1         1 OEK       0.020700
     69 H24        -58.8460    53.1520    41.5720 hc         1 OEK       0.048700
     70 H25        -58.1680    54.2340    40.3770 hc         1 OEK       0.048700
     71 H26        -58.7890    52.6140    38.5620 hc         1 OEK       0.043200
     72 H27        -59.5120    51.5570    39.7570 hc         1 OEK       0.043200
     73 H28        -57.2930    51.3120    40.8820 hc         1 OEK       0.045700
     74 H29        -56.5650    52.3620    39.6840 hc         1 OEK       0.045700
     75 H30        -57.2050    50.7630    37.8780 hc         1 OEK       0.050700
     76 H31        -57.9210    49.6910    39.0620 hc         1 OEK       0.050700
     77 H32        -55.6460    48.9770    38.3490 h1         1 OEK       0.062700
     78 H33        -54.9710    50.4980    38.9510 h1         1 OEK       0.062700
     79 H35        -61.0680    63.5030    40.4950 ha         1 OEK       0.111000
     80 H36        -61.6870    65.5510    41.6790 ha         1 OEK       0.149000
     81 H37        -63.5970    62.9070    44.6500 ha         1 OEK       0.137000
     82 H38        -65.5910    62.0530    45.6680 ha         1 OEK       0.125500
     83 H39        -60.8370    64.4280    50.3790 hc         1 OEK       0.046033
     84 H40        -61.9160    65.0910    49.1460 hc         1 OEK       0.046033
     85 H41        -62.5150    63.8980    50.3010 hc         1 OEK       0.046033
     86 H42        -63.6070    62.0830    49.4980 ha         1 OEK       0.117500
     87 H43        -67.8560    60.8940    48.1540 h1         1 OEK       0.046700
     88 H44        -67.4260    62.1630    47.0150 h1         1 OEK       0.046700
     89 H45        -66.9080    60.4950    46.7260 h1         1 OEK       0.046700
     90 H46        -65.7300    62.0900    50.3000 h1         1 OEK       0.046700
     91 H47        -66.8350    60.7620    49.9640 h1         1 OEK       0.046700
     92 H48        -65.1010    60.4720    49.9560 h1         1 OEK       0.046700
     93 H49        -56.8820    64.7570    46.0490 ha         1 OEK       0.193500
     94 H50        -58.9160    64.3310    44.8480 ha         1 OEK       0.205000
     95 CL1        -55.5720    49.0350    40.7040 cl         1 OEK      -0.303000
@<TRIPOS>BOND
     1     1     6 2   
     2     1     7 1   
     3     1     8 1   
     4     2    16 1   
     5     2    17 1   
     6     2    47 1   
     7     3     5 2   
     8     3    11 1   
     9     3    42 1   
    10     4    16 2   
    11     5     6 1   
    12     5    48 1   
    13     6    40 1   
    14     7    49 1   
    15     7    50 1   
    16     7    51 1   
    17     8    52 1   
    18     8    53 1   
    19     8    54 1   
    20     9    11 1   
    21     9    55 1   
    22     9    56 1   
    23     9    57 1   
    24    10    18 1   
    25    10    19 1   
    26    11    34 1   
    27    11    35 1   
    28    12    13 1   
    29    12    31 1   
    30    12    42 2   
    31    13    14 ar  
    32    13    29 ar  
    33    14    15 ar  
    34    14    58 1   
    35    15    16 1   
    36    15    27 ar  
    37    17    18 1   
    38    17    59 1   
    39    17    60 1   
    40    18    61 1   
    41    18    62 1   
    42    19    20 1   
    43    19    63 1   
    44    19    64 1   
    45    20    44 1   
    46    20    65 1   
    47    20    66 1   
    48    21    22 1   
    49    21    44 1   
    50    21    67 1   
    51    21    68 1   
    52    22    23 1   
    53    22    69 1   
    54    22    70 1   
    55    23    24 1   
    56    23    71 1   
    57    23    72 1   
    58    24    25 1   
    59    24    73 1   
    60    24    74 1   
    61    25    26 1   
    62    25    75 1   
    63    25    76 1   
    64    26    77 1   
    65    26    78 1   
    66    26    95 1   
    67    27    28 ar  
    68    27    79 1   
    69    28    29 ar  
    70    28    80 1   
    71    29    30 1   
    72    30    45 1   
    73    30    46 1   
    74    31    32 ar  
    75    31    35 ar  
    76    32    33 ar  
    77    32    81 1   
    78    33    37 ar  
    79    33    82 1   
    80    34    83 1   
    81    34    84 1   
    82    34    85 1   
    83    35    36 ar  
    84    36    37 ar  
    85    36    86 1   
    86    37    43 1   
    87    38    43 1   
    88    38    87 1   
    89    38    88 1   
    90    38    89 1   
    91    39    43 1   
    92    39    90 1   
    93    39    91 1   
    94    39    92 1   
    95    40    41 2   
    96    40    93 1   
    97    41    42 1   
    98    41    94 1   
@<TRIPOS>SUBSTRUCTURE
     1 OEK         1 TEMP              0 ****  ****    0 ROOT
