@<TRIPOS>MOLECULE
OEL
   44    44     1     0     0
SMALL
No Charge or Current Charge


@<TRIPOS>ATOM
      1 C1          -4.1620    -1.0400    -0.8090 c          1 OEL       0.743000
      2 C2          -2.6240    -0.8810    -1.0200 c6         1 OEL      -0.001700
      3 C3          -1.8580    -1.7360     0.0140 c6         1 OEL       0.180300
      4 F3          -2.2080    -3.0900    -0.1830 f          1 OEL      -0.255000
      5 C4          -0.3210    -1.5980    -0.1650 c6         1 OEL       0.070500
      6 N4           0.4060    -2.3700     0.8610 n2         1 OEL      -0.053200
      7 C5           0.1070    -0.0950    -0.1780 c6         1 OEL       0.084700
      8 N5           1.5470     0.0280    -0.4980 ns         1 OEL      -0.527900
      9 C6          -0.7540     0.6920    -1.2200 c6         1 OEL       0.041300
     10 O6          -2.1620     0.4990    -0.9310 os         1 OEL      -0.385000
     11 C7          -0.4540     2.2200    -1.3610 c          1 OEL       0.566100
     12 O7          -0.7800     2.8140    -2.3870 o          1 OEL      -0.520100
     13 C8           0.1440     3.0060    -0.1490 c3         1 OEL       0.093300
     14 O8           0.6930     4.2980    -0.5480 oh         1 OEL      -0.625000
     15 C9          -0.9360     3.1910     0.9560 c3         1 OEL       0.135600
     16 O9          -0.3550     3.7290     2.1560 oh         1 OEL      -0.647000
     17 O1A         -4.7480    -1.6460    -1.6970 o          1 OEL      -0.656500
     18 O1B         -4.7300    -0.1310    -0.2160 o          1 OEL      -0.656500
     19 N41          0.9810    -3.4090     0.4990 n1         1 OEL       0.230000
     20 N42          1.9880    -3.5930     1.1940 n2         1 OEL      -0.257400
     21 C51          2.5700     0.1040     0.4250 c          1 OEL       0.602100
     22 C52          3.9900     0.1520    -0.1730 c3         1 OEL      -0.130700
     23 O52          2.3510     0.1440     1.6260 o          1 OEL      -0.560100
     24 C53          4.6970     1.4830     0.1760 c3         1 OEL      -0.086100
     25 C54          4.8210    -1.0780     0.2620 c3         1 OEL      -0.086100
     26 H2          -2.3980    -1.2530    -2.0300 h1         1 OEL       0.046700
     27 H3          -2.1570    -1.4540     1.0350 h1         1 OEL       0.111700
     28 H4          -0.0710    -2.0150    -1.1520 h1         1 OEL       0.098700
     29 H5          -0.0770     0.3210     0.8260 h1         1 OEL       0.128700
     30 HN5          1.8340    -0.0190    -1.4710 hn         1 OEL       0.313500
     31 H6          -0.5540     0.2730    -2.2170 h1         1 OEL       0.059700
     32 H8           0.9460     2.3950     0.2770 h1         1 OEL       0.110700
     33 HO8          0.0610     4.7020    -1.1850 ho         1 OEL       0.448000
     34 H9          -1.7260     3.8550     0.5790 h1         1 OEL       0.043700
     35 H9A         -1.4040     2.2220     1.1740 h1         1 OEL       0.043700
     36 HO9         -1.0910     3.9050     2.7850 ho         1 OEL       0.449000
     37 HN42         2.0870    -4.5980     1.3890 hn         1 OEL       0.515400
     38 H52          3.9000     0.1100    -1.2660 hc         1 OEL       0.042700
     39 H53          4.1050     2.3380    -0.1720 hc         1 OEL       0.048533
     40 H53A         4.8370     1.5820     1.2590 hc         1 OEL       0.048533
     41 H53B         5.6830     1.5360    -0.3030 hc         1 OEL       0.048533
     42 H54          4.3220    -2.0070    -0.0380 hc         1 OEL       0.048533
     43 H54A         5.8130    -1.0610    -0.2060 hc         1 OEL       0.048533
     44 H54B         4.9560    -1.0970     1.3500 hc         1 OEL       0.048533
@<TRIPOS>BOND
     1     1     2 1   
     2     1    17 1   
     3     1    18 1   
     4     2     3 1   
     5     2    10 1   
     6     2    26 1   
     7     3     4 1   
     8     3     5 1   
     9     3    27 1   
    10     5     6 1   
    11     5     7 1   
    12     5    28 1   
    13     6    19 2   
    14     7     8 1   
    15     7     9 1   
    16     7    29 1   
    17     8    21 1   
    18     8    30 1   
    19     9    10 1   
    20     9    11 1   
    21     9    31 1   
    22    11    12 2   
    23    11    13 1   
    24    13    14 1   
    25    13    15 1   
    26    13    32 1   
    27    14    33 1   
    28    15    16 1   
    29    15    34 1   
    30    15    35 1   
    31    16    36 1   
    32    19    20 2   
    33    20    37 1   
    34    21    22 1   
    35    21    23 2   
    36    22    24 1   
    37    22    25 1   
    38    22    38 1   
    39    24    39 1   
    40    24    40 1   
    41    24    41 1   
    42    25    42 1   
    43    25    43 1   
    44    25    44 1   
@<TRIPOS>SUBSTRUCTURE
     1 OEL         1 TEMP              0 ****  ****    0 ROOT
