@<TRIPOS>MOLECULE
OEL
   44    44     1     0     0
SMALL
abcg2


@<TRIPOS>ATOM
      1 C1          -3.8190    -0.5710    -0.1800 c          1 OEL       0.743000
      2 C2          -2.3360    -0.7160    -0.6200 c6         1 OEL      -0.001700
      3 C3          -1.5930    -1.8490     0.0810 c6         1 OEL       0.180300
      4 F3          -2.0570    -3.0870    -0.3220 f          1 OEL      -0.255000
      5 C4          -0.1240    -1.7960    -0.3250 c6         1 OEL       0.070500
      6 N4           0.6220    -2.8110     0.4620 n2         1 OEL      -0.053200
      7 C5           0.5060    -0.4400    -0.0600 c6         1 OEL       0.084700
      8 N5           1.8780    -0.4320    -0.4620 ns         1 OEL      -0.527900
      9 C6          -0.3780     0.5880    -0.8030 c6         1 OEL       0.041300
     10 O6          -1.6820     0.4970    -0.3170 os         1 OEL      -0.385000
     11 C7           0.1590     1.9860    -0.5620 c          1 OEL       0.566100
     12 O7           1.0150     2.4340    -1.2850 o          1 OEL      -0.520100
     13 C8          -0.3610     2.7980     0.6170 c3         1 OEL       0.093300
     14 O8           0.6190     3.6870     1.0690 oh         1 OEL      -0.625000
     15 C9          -1.6480     3.5230     0.2200 c3         1 OEL       0.135600
     16 O9          -2.1330     4.1830     1.3650 oh         1 OEL      -0.647000
     17 O1A         -4.3500     0.5050    -0.4830 o          1 OEL      -0.656500
     18 O1B         -4.3170    -1.5450     0.4070 o          1 OEL      -0.656500
     19 N41          0.5460    -3.9510     0.2850 n1         1 OEL       0.230000
     20 N42          0.6760    -5.0950     0.0960 n2         1 OEL      -0.257400
     21 C51          2.8310     0.2220     0.2490 c          1 OEL       0.602100
     22 C52          4.2190     0.2060    -0.3580 c3         1 OEL      -0.130700
     23 O52          2.5810     0.7830     1.3020 o          1 OEL      -0.560100
     24 C53          4.5570     1.6030    -0.8820 c3         1 OEL      -0.086100
     25 C54          5.2390    -0.2570     0.6780 c3         1 OEL      -0.086100
     26 H2          -2.3070    -0.9030    -1.7060 h1         1 OEL       0.046700
     27 H3          -1.6960    -1.7730     1.1660 h1         1 OEL       0.111700
     28 H4          -0.0190    -2.0790    -1.3780 h1         1 OEL       0.098700
     29 H5           0.4630    -0.2290     1.0120 h1         1 OEL       0.128700
     30 HN5          2.1160    -0.7940    -1.3730 hn         1 OEL       0.313500
     31 H6          -0.3320     0.3870    -1.8850 h1         1 OEL       0.059700
     32 H8          -0.5880     2.1190     1.4450 h1         1 OEL       0.110700
     33 HO8          1.0450     4.0880     0.3030 ho         1 OEL       0.448000
     34 H9          -1.4160     4.2300    -0.5900 h1         1 OEL       0.043700
     35 H9A         -2.3760     2.8060    -0.1720 h1         1 OEL       0.043700
     36 HO9         -2.9860     4.5680     1.1440 ho         1 OEL       0.449000
     37 HN42         0.0060    -5.7170     0.5620 hn         1 OEL       0.515400
     38 H52          4.2350    -0.4920    -1.1990 hc         1 OEL       0.042700
     39 H53          3.8620     1.9240    -1.6580 hc         1 OEL       0.048533
     40 H53A         4.5300     2.3380    -0.0770 hc         1 OEL       0.048533
     41 H53B         5.5600     1.6050    -1.3080 hc         1 OEL       0.048533
     42 H54          5.0030    -1.2480     1.0660 hc         1 OEL       0.048533
     43 H54A         6.2300    -0.3040     0.2250 hc         1 OEL       0.048533
     44 H54B         5.2880     0.4360     1.5180 hc         1 OEL       0.048533
@<TRIPOS>BOND
     1     1     2 1   
     2     1    17 1   
     3     1    18 1   
     4     2     3 1   
     5     2    10 1   
     6     2    26 1   
     7     3     4 1   
     8     3     5 1   
     9     3    27 1   
    10     5     6 1   
    11     5     7 1   
    12     5    28 1   
    13     6    19 2   
    14     7     8 1   
    15     7     9 1   
    16     7    29 1   
    17     8    21 1   
    18     8    30 1   
    19     9    10 1   
    20     9    11 1   
    21     9    31 1   
    22    11    12 2   
    23    11    13 1   
    24    13    14 1   
    25    13    15 1   
    26    13    32 1   
    27    14    33 1   
    28    15    16 1   
    29    15    34 1   
    30    15    35 1   
    31    16    36 1   
    32    19    20 2   
    33    20    37 1   
    34    21    22 1   
    35    21    23 2   
    36    22    24 1   
    37    22    25 1   
    38    22    38 1   
    39    24    39 1   
    40    24    40 1   
    41    24    41 1   
    42    25    42 1   
    43    25    43 1   
    44    25    44 1   
@<TRIPOS>SUBSTRUCTURE
     1 OEL         1 TEMP              0 ****  ****    0 ROOT
