@<TRIPOS>MOLECULE
OEM
   17    16     1     0     0
SMALL
abcg2


@<TRIPOS>ATOM
      1 C            7.7610    36.6690     9.9200 c          1 OEM       0.755000
      2 N            9.4190    38.4950     9.5370 n7         1 OEM      -0.849400
      3 O            8.5770    35.9190     9.3520 o          1 OEM      -0.758500
      4 CA           8.0860    38.1820    10.0260 c3         1 OEM       0.070500
      5 CB           7.7680    38.7320    11.4190 c3         1 OEM      -0.211400
      6 CG           8.6600    38.2220    12.5660 c          1 OEM       0.713000
      7 CAA          9.7070    39.9080     9.4370 c3         1 OEM       0.169100
      8 OD1          9.3730    37.2190    12.3490 o          1 OEM      -0.762500
      9 OD2          8.5780    38.8470    13.6450 o          1 OEM      -0.762500
     10 OXT          6.6480    36.3320    10.3820 o          1 OEM      -0.758500
     11 HA           7.3860    38.6730     9.3320 h1         1 OEM      -0.013300
     12 HB           7.8020    39.8270    11.4170 hc         1 OEM       0.008200
     13 HBA          6.7310    38.4840    11.6640 hc         1 OEM       0.008200
     14 HAA         10.7100    40.0510     9.0290 h1         1 OEM      -0.014633
     15 HAAA         9.0080    40.3800     8.7420 h1         1 OEM      -0.014633
     16 H8          10.0880    38.0560    10.1560 hn         1 OEM       0.438000
     17 H9           9.6560    40.4770    10.3760 h1         1 OEM      -0.014633
@<TRIPOS>BOND
     1     1     3 1   
     2     1     4 1   
     3     1    10 1   
     4     2     4 1   
     5     2     7 1   
     6     2    16 1   
     7     4     5 1   
     8     4    11 1   
     9     5     6 1   
    10     5    12 1   
    11     5    13 1   
    12     6     8 1   
    13     6     9 1   
    14     7    14 1   
    15     7    15 1   
    16     7    17 1   
@<TRIPOS>SUBSTRUCTURE
     1 OEM         1 TEMP              0 ****  ****    0 ROOT
