@<TRIPOS>MOLECULE
OEM
   17    16     1     0     0
SMALL
No Charge or Current Charge


@<TRIPOS>ATOM
      1 C            7.8910    36.6160     9.8790 c          1 OEM       0.755000
      2 N            9.4490    38.7170     9.6440 n7         1 OEM      -0.849400
      3 O            8.8670    35.8700     9.9050 o          1 OEM      -0.758500
      4 CA           8.1020    38.1890    10.0670 c3         1 OEM       0.070500
      5 CB           7.7590    38.6340    11.5210 c3         1 OEM      -0.211400
      6 CG           8.6660    37.9310    12.5480 c          1 OEM       0.713000
      7 CAA          9.5600    40.1610     9.3820 c3         1 OEM       0.169100
      8 OD1          8.2690    36.8930    13.0540 o          1 OEM      -0.762500
      9 OD2          9.7430    38.4410    12.8190 o          1 OEM      -0.762500
     10 OXT          6.7730    36.2160     9.5700 o          1 OEM      -0.758500
     11 HA           7.3550    38.6610     9.4130 h1         1 OEM      -0.013300
     12 HB           7.9020    39.7190    11.5620 hc         1 OEM       0.008200
     13 HBA          6.7130    38.3420    11.6780 hc         1 OEM       0.008200
     14 HAA         10.5620    40.3970     9.0030 h1         1 OEM      -0.014633
     15 HAAA         8.8240    40.4750     8.6300 h1         1 OEM      -0.014633
     16 H8          10.1240    38.4650    10.3780 hn         1 OEM       0.438000
     17 H9           9.3990    40.7450    10.2960 h1         1 OEM      -0.014633
@<TRIPOS>BOND
     1     1     3 1   
     2     1     4 1   
     3     1    10 1   
     4     2     4 1   
     5     2     7 1   
     6     2    16 1   
     7     4     5 1   
     8     4    11 1   
     9     5     6 1   
    10     5    12 1   
    11     5    13 1   
    12     6     8 1   
    13     6     9 1   
    14     7    14 1   
    15     7    15 1   
    16     7    17 1   
@<TRIPOS>SUBSTRUCTURE
     1 OEM         1 TEMP              0 ****  ****    0 ROOT
