@<TRIPOS>MOLECULE
OEN
   44    46     1     0     0
SMALL
bcc


@<TRIPOS>ATOM
      1 N          -28.0390   -18.6010    -0.9890 na         1 OEN      -0.150200
      2 O          -26.4420   -20.5800    -4.3380 o          1 OEN      -0.833300
      3 C1         -26.7710   -19.1160    -6.2080 c5         1 OEN      -0.042500
      4 C10        -28.0660   -19.3230    -8.0260 c2         1 OEN       0.409300
      5 C11        -28.4820   -19.6010    -9.4420 c3         1 OEN      -0.270000
      6 C12        -27.8550   -18.6210   -10.4580 c3         1 OEN       0.191100
      7 C13        -28.0940   -17.1690   -10.0840 c3         1 OEN      -0.091100
      8 C14        -28.1860   -21.0880    -9.7650 c          1 OEN       0.948600
      9 C2         -28.2080   -18.8800    -5.7290 c5         1 OEN       0.039400
     10 C3         -27.6780   -17.8720    -3.1490 c5         1 OEN      -0.021600
     11 C4         -28.3920   -18.9730    -2.3560 c5         1 OEN       0.044800
     12 C5         -27.9970   -19.1010     0.2320 cc         1 OEN       0.518900
     13 C6         -27.3690   -17.0900     0.3640 cd         1 OEN       0.518900
     14 C7         -27.6560   -16.6630    -2.2020 c5         1 OEN       0.044800
     15 C8         -29.0190   -18.7130    -7.0200 c5         1 OEN      -0.146000
     16 C9         -30.4020   -19.3430    -6.9490 c3         1 OEN      -0.071100
     17 N1         -27.5810   -18.1790     1.0920 nc         1 OEN      -0.681000
     18 N2         -27.6420   -17.3300    -0.9060 na         1 OEN      -0.150200
     19 N3         -26.8890   -19.5340    -7.6020 n2         1 OEN      -0.466900
     20 O1         -26.4790   -18.8340   -10.6200 oh         1 OEN      -0.652800
     21 O2         -27.1560   -21.3310   -10.4450 o          1 OEN      -0.818300
     22 O3         -28.9760   -21.9240    -9.3070 o          1 OEN      -0.818300
     23 S          -28.4880   -17.4190    -4.6920 ss         1 OEN      -0.337200
     24 H2         -26.2090   -18.1710    -6.1960 h1         1 OEN       0.055700
     25 H4         -29.5640   -19.4650    -9.5110 hc         1 OEN       0.032700
     26 H5         -28.3880   -18.8070   -11.4070 h1         1 OEN      -0.000300
     27 H6         -29.1590   -16.9730    -9.9550 hc         1 OEN       0.017367
     28 H7         -27.5850   -16.9040    -9.1550 hc         1 OEN       0.017367
     29 H8         -27.7260   -16.5020   -10.8660 hc         1 OEN       0.017367
     30 H9         -28.5690   -19.7590    -5.1910 h1         1 OEN       0.096700
     31 H10        -26.6540   -18.1890    -3.3440 h1         1 OEN       0.151700
     32 H11        -29.4750   -18.9330    -2.4630 h1         1 OEN       0.121200
     33 H12        -28.0140   -19.9620    -2.5950 h1         1 OEN       0.121200
     34 H13        -28.2650   -20.1200     0.4610 h5         1 OEN       0.107100
     35 H14        -27.0190   -16.1350     0.7210 h5         1 OEN       0.107100
     36 H15        -26.7710   -16.0430    -2.3120 h1         1 OEN       0.121200
     37 H16        -28.5540   -16.0470    -2.2690 h1         1 OEN       0.121200
     38 H17        -29.1300   -17.6510    -7.2830 hc         1 OEN       0.047700
     39 H18        -30.9680   -18.9130    -6.1220 hc         1 OEN       0.034033
     40 H19        -30.9750   -19.1710    -7.8600 hc         1 OEN       0.034033
     41 H20        -30.3340   -20.4190    -6.7880 hc         1 OEN       0.034033
     42 H23        -26.4210   -19.8170   -10.6450 ho         1 OEN       0.479000
     43 C          -25.9370   -20.1380    -5.3910 c          1 OEN       0.949600
     44 O4         -24.8190   -20.4100    -5.8570 o          1 OEN      -0.833300
@<TRIPOS>BOND
     1     1    11 1   
     2     1    12 2   
     3     1    18 1   
     4     2    43 1   
     5     3     9 1   
     6     3    19 1   
     7     3    24 1   
     8     3    43 1   
     9     4     5 1   
    10     4    15 1   
    11     4    19 2   
    12     5     6 1   
    13     5     8 1   
    14     5    25 1   
    15     6     7 1   
    16     6    20 1   
    17     6    26 1   
    18     7    27 1   
    19     7    28 1   
    20     7    29 1   
    21     8    21 1   
    22     8    22 1   
    23     9    15 1   
    24     9    23 1   
    25     9    30 1   
    26    10    11 1   
    27    10    14 1   
    28    10    23 1   
    29    10    31 1   
    30    11    32 1   
    31    11    33 1   
    32    12    17 1   
    33    12    34 1   
    34    13    17 2   
    35    13    18 1   
    36    13    35 1   
    37    14    18 1   
    38    14    36 1   
    39    14    37 1   
    40    15    16 1   
    41    15    38 1   
    42    16    39 1   
    43    16    40 1   
    44    16    41 1   
    45    20    42 1   
    46    43    44 1   
@<TRIPOS>SUBSTRUCTURE
     1 OEN         1 TEMP              0 ****  ****    0 ROOT
