@<TRIPOS>MOLECULE
OEN
   44    46     1     0     0
SMALL
No Charge or Current Charge


@<TRIPOS>ATOM
      1 N          -28.8150   -18.6290    -1.0700 na         1 OEN      -0.179500
      2 O          -25.4210   -19.9960    -5.1050 o          1 OEN      -0.728000
      3 C1         -26.4970   -18.3310    -6.5040 c5         1 OEN      -0.042500
      4 C10        -27.9930   -19.0600    -8.0010 c2         1 OEN       0.409300
      5 C11        -28.6270   -19.6190    -9.2630 c3         1 OEN      -0.270000
      6 C12        -28.0630   -19.0740   -10.5970 c3         1 OEN       0.214300
      7 C13        -28.0430   -17.5320   -10.6840 c3         1 OEN      -0.091100
      8 C14        -28.5930   -21.1400    -9.2170 c          1 OEN       0.738000
      9 C2         -27.8280   -18.5270    -5.7190 c5         1 OEN       0.087300
     10 C3         -27.5870   -17.9280    -3.0640 c5         1 OEN       0.026300
     11 C4         -28.7420   -18.8190    -2.5200 c5         1 OEN       0.074100
     12 C5         -28.6440   -19.5220    -0.0450 cc         1 OEN       0.518900
     13 C6         -27.4850   -17.8240     0.5320 cd         1 OEN       0.518900
     14 C7         -27.5080   -16.9010    -1.8980 c5         1 OEN       0.074100
     15 C8         -28.8460   -18.4910    -6.8770 c5         1 OEN      -0.146000
     16 C9         -30.1570   -19.2470    -6.5430 c3         1 OEN      -0.071100
     17 N1         -27.8610   -19.0310     0.9640 nc         1 OEN      -0.681000
     18 N2         -28.0690   -17.5360    -0.7050 na         1 OEN      -0.179500
     19 N3         -26.7160   -18.9990    -7.8330 n2         1 OEN      -0.466900
     20 O1         -26.7560   -19.5900   -10.8240 oh         1 OEN      -0.715000
     21 O2         -27.5060   -21.6890    -9.3370 o          1 OEN      -0.713000
     22 O3         -29.6480   -21.7400    -9.0890 o          1 OEN      -0.713000
     23 S          -28.1330   -17.0480    -4.6210 ss         1 OEN      -0.433000
     24 H2         -26.2890   -17.2660    -6.6720 h1         1 OEN       0.055700
     25 H4         -29.6810   -19.3210    -9.2520 hc         1 OEN       0.032700
     26 H5         -28.7240   -19.4380   -11.3950 h1         1 OEN      -0.000300
     27 H6         -29.0460   -17.1250   -10.5090 hc         1 OEN       0.017367
     28 H7         -27.3620   -17.0970    -9.9430 hc         1 OEN       0.017367
     29 H8         -27.7150   -17.2090   -11.6790 hc         1 OEN       0.017367
     30 H9         -27.8720   -19.4840    -5.1800 h1         1 OEN       0.096700
     31 H10        -26.6440   -18.4820    -3.1790 h1         1 OEN       0.151700
     32 H11        -29.7040   -18.5260    -2.9610 h1         1 OEN       0.121200
     33 H12        -28.5840   -19.8770    -2.7740 h1         1 OEN       0.121200
     34 H13        -29.0230   -20.5380    -0.0590 h5         1 OEN       0.107100
     35 H14        -26.7750   -17.1550     1.0050 h5         1 OEN       0.107100
     36 H15        -26.4750   -16.5700    -1.7270 h1         1 OEN       0.121200
     37 H16        -28.0960   -16.0020    -2.1270 h1         1 OEN       0.121200
     38 H17        -29.1250   -17.4630    -7.1350 hc         1 OEN       0.047700
     39 H18        -30.6210   -18.8410    -5.6360 hc         1 OEN       0.034033
     40 H19        -30.8950   -19.1590    -7.3490 hc         1 OEN       0.034033
     41 H20        -29.9690   -20.3140    -6.3710 hc         1 OEN       0.034033
     42 H23        -26.7380   -20.4310   -10.2900 ho         1 OEN       0.518000
     43 C          -25.2900   -18.9340    -5.7020 c          1 OEN       0.739000
     44 O4         -24.2370   -18.3110    -5.6730 o          1 OEN      -0.728000
@<TRIPOS>BOND
     1     1    11 1   
     2     1    12 2   
     3     1    18 1   
     4     2    43 1   
     5     3     9 1   
     6     3    19 1   
     7     3    24 1   
     8     3    43 1   
     9     4     5 1   
    10     4    15 1   
    11     4    19 2   
    12     5     6 1   
    13     5     8 1   
    14     5    25 1   
    15     6     7 1   
    16     6    20 1   
    17     6    26 1   
    18     7    27 1   
    19     7    28 1   
    20     7    29 1   
    21     8    21 1   
    22     8    22 1   
    23     9    15 1   
    24     9    23 1   
    25     9    30 1   
    26    10    11 1   
    27    10    14 1   
    28    10    23 1   
    29    10    31 1   
    30    11    32 1   
    31    11    33 1   
    32    12    17 1   
    33    12    34 1   
    34    13    17 2   
    35    13    18 1   
    36    13    35 1   
    37    14    18 1   
    38    14    36 1   
    39    14    37 1   
    40    15    16 1   
    41    15    38 1   
    42    16    39 1   
    43    16    40 1   
    44    16    41 1   
    45    20    42 1   
    46    43    44 1   
@<TRIPOS>SUBSTRUCTURE
     1 OEN         1 TEMP              0 ****  ****    0 ROOT
