@<TRIPOS>MOLECULE
OEO
   52    55     1     0     0
SMALL
abcg2


@<TRIPOS>ATOM
      1 N1          10.1920    -0.5290    22.2980 n          1 OEO      -0.237400
      2 C4           9.1220    -1.5670    24.2400 ca         1 OEO      -0.067500
      3 C5           9.8970    -1.6850    23.0900 ca         1 OEO      -0.114000
      4 C6          10.4090    -2.9340    22.7570 ca         1 OEO      -0.067500
      5 C7          10.1390    -4.0470    23.5370 ca         1 OEO      -0.181000
      6 C8          11.1620     0.4210    22.8430 c3         1 OEO       0.171300
      7 C10         13.6340     0.3900    23.5710 cc         1 OEO      -0.126000
      8 C13          9.6810    -0.3200    21.0580 c          1 OEO       0.600100
      9 C15          7.6210    -0.6630    19.6570 ca         1 OEO      -0.098300
     10 C17          5.8500     0.4440    17.8670 ca         1 OEO       0.361900
     11 C20          4.7580     2.1680    20.9770 ca         1 OEO      -0.114000
     12 C21          5.6590     1.6020    21.9050 ca         1 OEO      -0.092000
     13 C22          6.5960     0.6800    21.5070 ca         1 OEO      -0.104000
     14 O           10.0420     0.6200    20.3510 o          1 OEO      -0.588100
     15 C14          8.6250    -1.3080    20.5670 c3         1 OEO      -0.102100
     16 C23          6.6760     0.2800    20.1520 ca         1 OEO       0.005000
     17 C19          4.8090     1.7970    19.6580 ca         1 OEO      -0.080000
     18 C18          5.7640     0.8510    19.2210 ca         1 OEO      -0.097000
     19 N2           6.7210    -0.4310    17.4220 nb         1 OEO      -0.660000
     20 C16          7.5910    -0.9680    18.3190 ca         1 OEO       0.335900
     21 C9          12.5960    -0.0070    22.6740 cc         1 OEO      -0.123300
     22 C12         13.0720    -0.7830    21.6550 cd         1 OEO      -0.218000
     23 S           14.7690    -1.0340    21.7800 ss         1 OEO       0.183000
     24 C11         14.8620    -0.0870    23.2130 cd         1 OEO      -0.238000
     25 C3           8.8520    -2.6680    25.0360 ca         1 OEO      -0.181000
     26 C2           9.3420    -3.9490    24.6980 ca         1 OEO       0.333000
     27 N            9.0510    -5.0540    25.4650 nh         1 OEO      -0.820400
     28 C1           9.7760    -6.2920    25.2300 c3         1 OEO       0.208600
     29 C            8.4450    -4.8750    26.7730 c3         1 OEO       0.208600
     30 H1           8.7250    -0.5980    24.5170 ha         1 OEO       0.116500
     31 H2          11.0260    -3.0400    21.8740 ha         1 OEO       0.116500
     32 H3          10.5600    -4.9960    23.2410 ha         1 OEO       0.116500
     33 H4          10.9950     1.3800    22.3540 h1         1 OEO       0.068200
     34 H5          10.9450     0.5470    23.9040 h1         1 OEO       0.068200
     35 H6          13.4640     1.0020    24.4470 ha         1 OEO       0.131000
     36 H7           5.1590     0.8740    17.1460 h4         1 OEO       0.018100
     37 H8           4.0280     2.8930    21.3130 ha         1 OEO       0.115000
     38 H9           5.6080     1.9000    22.9450 ha         1 OEO       0.112000
     39 H10          7.2730     0.2580    22.2370 ha         1 OEO       0.118000
     40 H11          8.1300    -1.7830    21.4140 hc         1 OEO       0.072200
     41 H12          9.1510    -2.1000    20.0290 hc         1 OEO       0.072200
     42 H13          4.1230     2.2220    18.9340 ha         1 OEO       0.116000
     43 H14          8.2980    -1.6850    17.9170 h4         1 OEO       0.016100
     44 H15         12.5180    -1.2250    20.8430 h4         1 OEO       0.151000
     45 H16         15.8070     0.0550    23.7120 h4         1 OEO       0.149000
     46 H17          8.2510    -2.5290    25.9210 ha         1 OEO       0.116500
     47 H18          9.3860    -7.0580    25.8960 h1         1 OEO       0.038200
     48 H19          9.6370    -6.6390    24.2050 h1         1 OEO       0.038200
     49 H20         10.8530    -6.1870    25.4120 h1         1 OEO       0.038200
     50 H21          8.2560    -5.8520    27.2100 h1         1 OEO       0.038200
     51 H22          9.0890    -4.3060    27.4570 h1         1 OEO       0.038200
     52 H23          7.4900    -4.3530    26.6940 h1         1 OEO       0.038200
@<TRIPOS>BOND
     1     1     3 1   
     2     1     6 1   
     3     1     8 1   
     4     2     3 ar  
     5     2    25 ar  
     6     2    30 1   
     7     3     4 ar  
     8     4     5 ar  
     9     4    31 1   
    10     5    26 ar  
    11     5    32 1   
    12     6    21 1   
    13     6    33 1   
    14     6    34 1   
    15     7    21 1   
    16     7    24 2   
    17     7    35 1   
    18     8    14 2   
    19     8    15 1   
    20     9    15 1   
    21     9    16 ar  
    22     9    20 ar  
    23    10    18 ar  
    24    10    19 ar  
    25    10    36 1   
    26    11    12 ar  
    27    11    17 ar  
    28    11    37 1   
    29    12    13 ar  
    30    12    38 1   
    31    13    16 ar  
    32    13    39 1   
    33    15    40 1   
    34    15    41 1   
    35    16    18 ar  
    36    17    18 ar  
    37    17    42 1   
    38    19    20 ar  
    39    20    43 1   
    40    21    22 2   
    41    22    23 1   
    42    22    44 1   
    43    23    24 1   
    44    24    45 1   
    45    25    26 ar  
    46    25    46 1   
    47    26    27 1   
    48    27    28 1   
    49    27    29 1   
    50    28    47 1   
    51    28    48 1   
    52    28    49 1   
    53    29    50 1   
    54    29    51 1   
    55    29    52 1   
@<TRIPOS>SUBSTRUCTURE
     1 OEO         1 TEMP              0 ****  ****    0 ROOT
