@<TRIPOS>MOLECULE
OEO
   52    55     1     0     0
SMALL
No Charge or Current Charge


@<TRIPOS>ATOM
      1 N1          10.3870    -0.5710    21.9480 n          1 OEO      -0.237400
      2 C4           9.4860    -1.2700    24.1410 ca         1 OEO      -0.067500
      3 C5          10.1250    -1.6000    22.9290 ca         1 OEO      -0.114000
      4 C6          10.2760    -2.9610    22.5990 ca         1 OEO      -0.067500
      5 C7           9.8940    -3.9650    23.5060 ca         1 OEO      -0.181000
      6 C8          11.1970     0.5920    22.3870 c3         1 OEO       0.171300
      7 C10         13.2500    -0.3920    23.5530 cc         1 OEO      -0.126000
      8 C13         10.0500    -0.6620    20.5690 c          1 OEO       0.600100
      9 C15          7.7620    -0.7510    19.4820 ca         1 OEO      -0.098300
     10 C17          5.8360     0.6980    18.1260 ca         1 OEO       0.361900
     11 C20          4.8270     1.4260    21.6370 ca         1 OEO      -0.114000
     12 C21          5.7970     0.6980    22.3440 ca         1 OEO      -0.092000
     13 C22          6.7780    -0.0320    21.6500 ca         1 OEO      -0.104000
     14 O           10.6310     0.0130    19.7250 o          1 OEO      -0.588100
     15 C14          8.8840    -1.5730    20.1280 c3         1 OEO      -0.102100
     16 C23          6.7970    -0.0380    20.2370 ca         1 OEO       0.005000
     17 C19          4.8360     1.4280    20.2330 ca         1 OEO      -0.080000
     18 C18          5.8180     0.6990    19.5340 ca         1 OEO      -0.097000
     19 N2           6.7560     0.0240    17.4000 nb         1 OEO      -0.660000
     20 C16          7.6940    -0.6780    18.0740 ca         1 OEO       0.335900
     21 C9          12.6670     0.2520    22.4290 cc         1 OEO      -0.123300
     22 C12         13.5870     0.4990    21.4400 cd         1 OEO      -0.218000
     23 S           15.2090    -0.0630    21.8800 ss         1 OEO       0.183000
     24 C11         14.5920    -0.6360    23.4350 cd         1 OEO      -0.238000
     25 C3           9.1020    -2.2760    25.0440 ca         1 OEO      -0.181000
     26 C2           9.3110    -3.6360    24.7440 ca         1 OEO       0.333000
     27 N            8.9220    -4.6520    25.6560 nh         1 OEO      -0.820400
     28 C1           9.6110    -5.9640    25.6920 c3         1 OEO       0.208600
     29 C            7.8110    -4.4480    26.6170 c3         1 OEO       0.208600
     30 H1           9.2750    -0.2330    24.3910 ha         1 OEO       0.116500
     31 H2          10.7160    -3.2480    21.6470 ha         1 OEO       0.116500
     32 H3          10.0400    -5.0040    23.2270 ha         1 OEO       0.116500
     33 H4          11.0350     1.4430    21.7130 h1         1 OEO       0.068200
     34 H5          10.8760     0.9160    23.3830 h1         1 OEO       0.068200
     35 H6          12.6640    -0.6670    24.4260 ha         1 OEO       0.131000
     36 H7           5.0930     1.2560    17.5590 h4         1 OEO       0.018100
     37 H8           4.0690     1.9900    22.1770 ha         1 OEO       0.115000
     38 H9           5.7890     0.6970    23.4320 ha         1 OEO       0.112000
     39 H10          7.5100    -0.5860    22.2270 ha         1 OEO       0.118000
     40 H11          8.4820    -2.1610    20.9560 hc         1 OEO       0.072200
     41 H12          9.2860    -2.2850    19.3980 hc         1 OEO       0.072200
     42 H13          4.0820     1.9950    19.6910 ha         1 OEO       0.116000
     43 H14          8.4220    -1.2040    17.4580 h4         1 OEO       0.016100
     44 H15         13.4210     0.9690    20.4780 h4         1 OEO       0.151000
     45 H16         15.2560    -1.1120    24.1470 h4         1 OEO       0.149000
     46 H17          8.6390    -1.9870    25.9820 ha         1 OEO       0.116500
     47 H18          9.5160    -6.4290    26.6830 h1         1 OEO       0.038200
     48 H19          9.1810    -6.6460    24.9460 h1         1 OEO       0.038200
     49 H20         10.6830    -5.8440    25.4850 h1         1 OEO       0.038200
     50 H21          7.3740    -5.4090    26.9190 h1         1 OEO       0.038200
     51 H22          8.1700    -3.9300    27.5160 h1         1 OEO       0.038200
     52 H23          7.0110    -3.8500    26.1600 h1         1 OEO       0.038200
@<TRIPOS>BOND
     1     1     3 1   
     2     1     6 1   
     3     1     8 1   
     4     2     3 ar  
     5     2    25 ar  
     6     2    30 1   
     7     3     4 ar  
     8     4     5 ar  
     9     4    31 1   
    10     5    26 ar  
    11     5    32 1   
    12     6    21 1   
    13     6    33 1   
    14     6    34 1   
    15     7    21 1   
    16     7    24 2   
    17     7    35 1   
    18     8    14 2   
    19     8    15 1   
    20     9    15 1   
    21     9    16 ar  
    22     9    20 ar  
    23    10    18 ar  
    24    10    19 ar  
    25    10    36 1   
    26    11    12 ar  
    27    11    17 ar  
    28    11    37 1   
    29    12    13 ar  
    30    12    38 1   
    31    13    16 ar  
    32    13    39 1   
    33    15    40 1   
    34    15    41 1   
    35    16    18 ar  
    36    17    18 ar  
    37    17    42 1   
    38    19    20 ar  
    39    20    43 1   
    40    21    22 2   
    41    22    23 1   
    42    22    44 1   
    43    23    24 1   
    44    24    45 1   
    45    25    26 ar  
    46    25    46 1   
    47    26    27 1   
    48    27    28 1   
    49    27    29 1   
    50    28    47 1   
    51    28    48 1   
    52    28    49 1   
    53    29    50 1   
    54    29    51 1   
    55    29    52 1   
@<TRIPOS>SUBSTRUCTURE
     1 OEO         1 TEMP              0 ****  ****    0 ROOT
