@<TRIPOS>MOLECULE
OEP
   51    54     1     0     0
SMALL
abcg2


@<TRIPOS>ATOM
      1 C1           5.6720     0.5440     1.2120 cc         1 OEP       0.151400
      2 C10          0.4120     0.2520    -2.3230 ca         1 OEP      -0.074500
      3 C11         -0.3940     0.6430    -1.2580 ca         1 OEP      -0.126600
      4 C12          0.1280     1.5130    -0.3010 ca         1 OEP      -0.074500
      5 C13          1.4340     1.9610    -0.4050 ca         1 OEP      -0.119500
      6 C14         -1.8010     0.1460    -1.2120 c          1 OEP       0.618700
      7 C15         -3.6060    -0.4550     0.3450 ca         1 OEP      -0.072000
      8 C16         -4.2360     0.2330     1.3890 ca         1 OEP      -0.050300
      9 C17         -5.5380    -0.1330     1.7080 ca         1 OEP      -0.144000
     10 C18         -6.2060    -1.1300     1.0120 ca         1 OEP      -0.100000
     11 C19         -5.5760    -1.8110    -0.0230 ca         1 OEP      -0.151600
     12 C2           4.9820     0.4100     0.0080 cd         1 OEP      -0.287600
     13 C20         -4.2650    -1.4670    -0.3410 ca         1 OEP      -0.077000
     14 C21         -6.2920    -2.9160    -0.7870 c          1 OEP       0.717600
     15 C22         -3.5250     1.3250     2.1220 c3         1 OEP      -0.175100
     16 C23         -3.2250     2.5770     1.2590 c          1 OEP       0.713000
     17 C3           4.9160    -0.8810    -0.5860 c          1 OEP       0.623600
     18 C4           6.2170    -1.6050     1.3730 cd         1 OEP       0.722800
     19 C5           4.4990     1.7040    -0.3630 cd         1 OEP      -0.041300
     20 C6           4.9140     2.5530     0.6200 cc         1 OEP      -0.208000
     21 C7           3.6720     2.0570    -1.5560 c3         1 OEP       0.045200
     22 C8           2.2530     1.5530    -1.4540 ca         1 OEP      -0.091300
     23 C9           1.7250     0.6890    -2.4080 ca         1 OEP      -0.119500
     24 N1           6.2910    -0.4220     1.9190 nc         1 OEP      -0.721100
     25 N2           5.5700    -1.8420     0.1940 ns         1 OEP      -0.457400
     26 N3           5.6210     1.8430     1.5680 na         1 OEP      -0.111000
     27 N4           6.8310    -2.6550     1.9480 nv         1 OEP      -1.053200
     28 N5          -2.2750    -0.1110     0.0280 ns         1 OEP      -0.126000
     29 O1           4.3890    -1.2080    -1.6390 o          1 OEP      -0.531000
     30 O2          -2.4450    -0.0330    -2.2340 o          1 OEP      -0.591100
     31 O3          -5.6480    -3.4790    -1.6950 o          1 OEP      -0.743000
     32 O4          -7.4630    -3.1650    -0.4430 o          1 OEP      -0.743000
     33 O5          -2.3020     3.3090     1.6740 o          1 OEP      -0.737000
     34 O6          -3.9410     2.7650     0.2620 o          1 OEP      -0.737000
     35 H1           0.0190    -0.4120    -3.0820 ha         1 OEP       0.147000
     36 H2          -0.4890     1.8870     0.5090 ha         1 OEP       0.147000
     37 H3           1.8220     2.6440     0.3420 ha         1 OEP       0.101500
     38 H4          -6.0450     0.3870     2.5130 ha         1 OEP       0.077000
     39 H5          -7.2240    -1.3830     1.2780 ha         1 OEP       0.108000
     40 H6          -3.7570    -2.0090    -1.1250 ha         1 OEP       0.132000
     41 H7          -4.1440     1.6490     2.9660 hc         1 OEP       0.013700
     42 H8          -2.5950     0.9630     2.5740 hc         1 OEP       0.013700
     43 H9           4.7580     3.6140     0.7300 h4         1 OEP       0.149000
     44 H10          3.6580     3.1440    -1.6680 hc         1 OEP       0.046200
     45 H11          4.1300     1.6580    -2.4640 hc         1 OEP       0.046200
     46 H12          2.3480     0.3520    -3.2270 ha         1 OEP       0.101500
     47 H13          5.5660    -2.7850    -0.1730 hn         1 OEP       0.315500
     48 H14          6.0420     2.2330     2.3960 hn         1 OEP       0.350000
     49 H15          6.5880    -3.5950     1.6860 hn         1 OEP       0.489500
     50 H16          7.1680    -2.5320     2.8880 hn         1 OEP       0.489500
     51 H17         -1.6540     0.0540     0.8050 hn         1 OEP       0.141000
@<TRIPOS>BOND
     1     1    12 2   
     2     1    24 1   
     3     1    26 1   
     4     2     3 ar  
     5     2    23 ar  
     6     2    35 1   
     7     3     4 ar  
     8     3     6 1   
     9     4     5 ar  
    10     4    36 1   
    11     5    22 ar  
    12     5    37 1   
    13     6    28 1   
    14     6    30 2   
    15     7     8 ar  
    16     7    13 ar  
    17     7    28 1   
    18     8     9 ar  
    19     8    15 1   
    20     9    10 ar  
    21     9    38 1   
    22    10    11 ar  
    23    10    39 1   
    24    11    13 ar  
    25    11    14 1   
    26    12    17 1   
    27    12    19 1   
    28    13    40 1   
    29    14    31 1   
    30    14    32 1   
    31    15    16 1   
    32    15    41 1   
    33    15    42 1   
    34    16    33 1   
    35    16    34 1   
    36    17    25 1   
    37    17    29 2   
    38    18    24 2   
    39    18    25 1   
    40    18    27 1   
    41    19    20 2   
    42    19    21 1   
    43    20    26 1   
    44    20    43 1   
    45    21    22 1   
    46    21    44 1   
    47    21    45 1   
    48    22    23 ar  
    49    23    46 1   
    50    25    47 1   
    51    26    48 1   
    52    27    49 1   
    53    27    50 1   
    54    28    51 1   
@<TRIPOS>SUBSTRUCTURE
     1 OEP         1 TEMP              0 ****  ****    0 ROOT
