@<TRIPOS>MOLECULE
OEP
   51    54     1     0     0
SMALL
No Charge or Current Charge


@<TRIPOS>ATOM
      1 C1           5.9150     0.7050     1.2600 cc         1 OEP       0.151400
      2 C10          0.6390    -0.4770    -2.0850 ca         1 OEP      -0.074500
      3 C11         -0.3060     0.0460    -1.1710 ca         1 OEP      -0.126600
      4 C12          0.0770     1.1510    -0.3710 ca         1 OEP      -0.074500
      5 C13          1.3620     1.7090    -0.4890 ca         1 OEP      -0.119500
      6 C14         -1.6830    -0.5900    -1.0730 c          1 OEP       0.618700
      7 C15         -3.9160    -0.2860     0.1840 ca         1 OEP      -0.072000
      8 C16         -4.4390     0.2650     1.3810 ca         1 OEP      -0.050300
      9 C17         -5.7750    -0.0030     1.7360 ca         1 OEP      -0.144000
     10 C18         -6.5930    -0.7980     0.9220 ca         1 OEP      -0.100000
     11 C19         -6.0970    -1.3450    -0.2810 ca         1 OEP      -0.151600
     12 C2           5.3230     0.4820     0.0540 cd         1 OEP      -0.287600
     13 C20         -4.7540    -1.0760    -0.6380 ca         1 OEP      -0.077000
     14 C21         -6.9870    -2.1980    -1.1750 c          1 OEP       0.717600
     15 C22         -3.5930     1.1430     2.3160 c3         1 OEP      -0.175100
     16 C23         -3.6450     2.6130     1.8540 c          1 OEP       0.713000
     17 C3           5.5640    -0.7780    -0.6720 c          1 OEP       0.623600
     18 C4           6.9290    -1.2850     1.2060 cd         1 OEP       0.722800
     19 C5           4.5270     1.6130    -0.2760 cd         1 OEP      -0.041300
     20 C6           4.6510     2.5250     0.7480 cc         1 OEP      -0.208000
     21 C7           3.6850     1.7960    -1.5160 c3         1 OEP       0.045200
     22 C8           2.2940     1.1810    -1.4000 ca         1 OEP      -0.091300
     23 C9           1.9220     0.0850    -2.1980 ca         1 OEP      -0.119500
     24 N1           6.7520    -0.1820     1.8890 nc         1 OEP      -0.721100
     25 N2           6.3960    -1.6030     0.0130 ns         1 OEP      -0.457400
     26 N3           5.5100     1.9540     1.6930 na         1 OEP      -0.111000
     27 N4           7.7220    -2.1790     1.7710 nv         1 OEP      -1.053200
     28 N5          -2.5630    -0.0000    -0.1700 ns         1 OEP      -0.126000
     29 O1           5.0990    -1.0780    -1.7600 o          1 OEP      -0.531000
     30 O2          -1.9710    -1.5770    -1.7440 o          1 OEP      -0.591100
     31 O3          -6.5330    -2.6150    -2.2310 o          1 OEP      -0.743000
     32 O4          -8.1290    -2.4380    -0.8090 o          1 OEP      -0.743000
     33 O5          -2.8230     2.9870     1.0310 o          1 OEP      -0.737000
     34 O6          -4.5670     3.3110     2.2490 o          1 OEP      -0.737000
     35 H1           0.3810    -1.3270    -2.7150 ha         1 OEP       0.147000
     36 H2          -0.6060     1.5930     0.3500 ha         1 OEP       0.147000
     37 H3           1.6360     2.5570     0.1350 ha         1 OEP       0.101500
     38 H4          -6.1870     0.4120     2.6530 ha         1 OEP       0.077000
     39 H5          -7.6210    -0.9810     1.2280 ha         1 OEP       0.108000
     40 H6          -4.3790    -1.4800    -1.5720 ha         1 OEP       0.132000
     41 H7          -4.0320     1.0560     3.3180 hc         1 OEP       0.013700
     42 H8          -2.5620     0.7700     2.2900 hc         1 OEP       0.013700
     43 H9           4.2060     3.5040     0.8780 h4         1 OEP       0.149000
     44 H10          3.5820     2.8680    -1.7260 hc         1 OEP       0.046200
     45 H11          4.2130     1.3880    -2.3860 hc         1 OEP       0.046200
     46 H12          2.6280    -0.3380    -2.9090 ha         1 OEP       0.101500
     47 H13          6.6240    -2.4770    -0.4280 hn         1 OEP       0.315500
     48 H14          5.8010     2.3780     2.5660 hn         1 OEP       0.350000
     49 H15          7.5420    -3.1510     1.5560 hn         1 OEP       0.489500
     50 H16          7.9370    -1.9810     2.7400 hn         1 OEP       0.489500
     51 H17         -2.1750     0.7850     0.3350 hn         1 OEP       0.141000
@<TRIPOS>BOND
     1     1    12 2   
     2     1    24 1   
     3     1    26 1   
     4     2     3 ar  
     5     2    23 ar  
     6     2    35 1   
     7     3     4 ar  
     8     3     6 1   
     9     4     5 ar  
    10     4    36 1   
    11     5    22 ar  
    12     5    37 1   
    13     6    28 1   
    14     6    30 2   
    15     7     8 ar  
    16     7    13 ar  
    17     7    28 1   
    18     8     9 ar  
    19     8    15 1   
    20     9    10 ar  
    21     9    38 1   
    22    10    11 ar  
    23    10    39 1   
    24    11    13 ar  
    25    11    14 1   
    26    12    17 1   
    27    12    19 1   
    28    13    40 1   
    29    14    31 1   
    30    14    32 1   
    31    15    16 1   
    32    15    41 1   
    33    15    42 1   
    34    16    33 1   
    35    16    34 1   
    36    17    25 1   
    37    17    29 2   
    38    18    24 2   
    39    18    25 1   
    40    18    27 1   
    41    19    20 2   
    42    19    21 1   
    43    20    26 1   
    44    20    43 1   
    45    21    22 1   
    46    21    44 1   
    47    21    45 1   
    48    22    23 ar  
    49    23    46 1   
    50    25    47 1   
    51    26    48 1   
    52    27    49 1   
    53    27    50 1   
    54    28    51 1   
@<TRIPOS>SUBSTRUCTURE
     1 OEP         1 TEMP              0 ****  ****    0 ROOT
