@<TRIPOS>MOLECULE
OEQ
   44    46     1     0     0
SMALL
No Charge or Current Charge


@<TRIPOS>ATOM
      1 N2         -28.5940   -18.8030    -0.7840 na         1 OEQ      -0.175500
      2 C3         -28.9090   -19.2190    -3.1640 c5         1 OEQ      -0.051700
      3 C4         -27.6860   -18.3080    -2.8590 c5         1 OEQ       0.084100
      4 C6         -29.1970   -18.0330     0.1750 cc         1 OEQ       0.495400
      5 C7         -29.1700   -19.7590    -1.7300 c5         1 OEQ       0.084100
      6 C10        -28.3990   -18.3230    -7.7530 c5         1 OEQ       0.219500
      7 C11        -28.7390   -19.2270    -8.9880 c3         1 OEQ      -0.250700
      8 C12        -28.0240   -18.8400   -10.3100 c3         1 OEQ       0.193300
      9 N          -27.7560   -17.9380    -1.4470 na         1 OEQ      -0.175500
     10 O          -24.5720   -19.7220    -6.7910 o          1 OEQ      -0.706000
     11 C1         -26.8800   -19.3300    -6.3170 ce         1 OEQ       0.183800
     12 C13        -28.1600   -17.3570   -10.7160 c3         1 OEQ      -0.091100
     13 C14        -28.5880   -20.7430    -8.7440 c          1 OEQ       0.719000
     14 C2         -28.0490   -19.5420    -5.6740 c2         1 OEQ      -0.231600
     15 C5         -27.8950   -16.6830    -0.8460 cd         1 OEQ       0.495400
     16 C8         -29.0620   -18.6430    -6.3550 c5         1 OEQ       0.008500
     17 C9         -30.5190   -19.1670    -6.3880 c3         1 OEQ      -0.079100
     18 N1         -28.7530   -16.7380     0.1770 nc         1 OEQ      -0.691000
     19 N3         -26.9660   -18.4080    -7.3920 nu         1 OEQ      -0.751200
     20 O1         -26.6450   -19.1920   -10.2170 oh         1 OEQ      -0.739000
     21 O2         -27.4560   -21.2100    -8.7130 o          1 OEQ      -0.710000
     22 O3         -29.5910   -21.4360    -8.8020 o          1 OEQ      -0.710000
     23 O4         -25.3760   -20.8020    -5.1240 o          1 OEQ      -0.706000
     24 S          -28.3940   -20.6190    -4.2790 ss         1 OEQ      -0.167600
     25 H1         -29.7640   -18.6510    -3.5500 h1         1 OEQ       0.090700
     26 H2         -26.7430   -18.8420    -3.0370 h1         1 OEQ       0.117200
     27 H3         -27.6780   -17.4200    -3.5060 h1         1 OEQ       0.117200
     28 H4         -29.9960   -18.3850     0.8170 h5         1 OEQ       0.101100
     29 H5         -30.2440   -19.9030    -1.5480 h1         1 OEQ       0.117200
     30 H6         -28.6870   -20.7340    -1.5810 h1         1 OEQ       0.117200
     31 H7         -28.6660   -17.2940    -8.0270 h1         1 OEQ       0.030700
     32 H8         -29.8080   -19.0570    -9.1640 hc         1 OEQ       0.039700
     33 H9         -28.4860   -19.4370   -11.1080 h1         1 OEQ       0.010700
     34 H10        -29.2160   -17.0620   -10.7470 hc         1 OEQ       0.019033
     35 H11        -27.6370   -16.6980   -10.0130 hc         1 OEQ       0.019033
     36 H12        -27.7340   -17.1940   -11.7130 hc         1 OEQ       0.019033
     37 H13        -27.4050   -15.7990    -1.2380 h5         1 OEQ       0.101100
     38 H14        -29.1160   -17.7080    -5.7840 hc         1 OEQ      -0.005300
     39 H15        -30.9650   -19.1720    -5.3870 hc         1 OEQ       0.031700
     40 H16        -31.1500   -18.5310    -7.0210 hc         1 OEQ       0.031700
     41 H17        -30.5780   -20.1900    -6.7680 hc         1 OEQ       0.031700
     42 H18        -26.2570   -18.5220    -8.1210 hn         1 OEQ       0.520000
     43 H19        -26.6710   -20.0590    -9.7200 ho         1 OEQ       0.520000
     44 C          -25.5120   -20.0160    -6.0560 c          1 OEQ       0.722200
@<TRIPOS>BOND
     1     1     4 2   
     2     1     5 1   
     3     1     9 1   
     4     2     3 1   
     5     2     5 1   
     6     2    24 1   
     7     2    25 1   
     8     3     9 1   
     9     3    26 1   
    10     3    27 1   
    11     4    18 1   
    12     4    28 1   
    13     5    29 1   
    14     5    30 1   
    15     6     7 1   
    16     6    16 1   
    17     6    19 1   
    18     6    31 1   
    19     7     8 1   
    20     7    13 1   
    21     7    32 1   
    22     8    12 1   
    23     8    20 1   
    24     8    33 1   
    25     9    15 1   
    26    10    44 1   
    27    11    14 2   
    28    11    19 1   
    29    11    44 1   
    30    12    34 1   
    31    12    35 1   
    32    12    36 1   
    33    13    21 1   
    34    13    22 1   
    35    14    16 1   
    36    14    24 1   
    37    15    18 2   
    38    15    37 1   
    39    16    17 1   
    40    16    38 1   
    41    17    39 1   
    42    17    40 1   
    43    17    41 1   
    44    19    42 1   
    45    20    43 1   
    46    23    44 1   
@<TRIPOS>SUBSTRUCTURE
     1 OEQ         1 TEMP              0 ****  ****    0 ROOT
