@<TRIPOS>MOLECULE
OEQ
   44    46     1     0     0
SMALL
abcg2


@<TRIPOS>ATOM
      1 N2         -29.0000   -18.5690    -0.8400 na         1 OEQ      -0.175500
      2 C3         -28.6150   -18.8490    -3.1040 c5         1 OEQ      -0.051700
      3 C4         -27.2760   -18.6100    -2.3920 c5         1 OEQ       0.084100
      4 C6         -29.3030   -18.1890     0.3880 cc         1 OEQ       0.495400
      5 C7         -29.5810   -19.2610    -1.9860 c5         1 OEQ       0.084100
      6 C10        -28.5060   -18.3330    -8.0110 c5         1 OEQ       0.219500
      7 C11        -28.6930   -19.4240    -9.0880 c3         1 OEQ      -0.250700
      8 C12        -28.0710   -19.0330   -10.4510 c3         1 OEQ       0.193300
      9 N          -27.7380   -18.1990    -1.0670 na         1 OEQ      -0.175500
     10 O          -24.7040   -19.1670    -6.7510 o          1 OEQ      -0.706000
     11 C1         -26.9990   -18.9300    -6.3670 ce         1 OEQ       0.183800
     12 C13        -28.5690   -17.7070   -10.9980 c3         1 OEQ      -0.091100
     13 C14        -28.1830   -20.8290    -8.6890 c          1 OEQ       0.719000
     14 C2         -28.2090   -19.2130    -5.8340 c2         1 OEQ      -0.231600
     15 C5         -27.3080   -17.6050     0.0300 cd         1 OEQ       0.495400
     16 C8         -29.2710   -18.5420    -6.6830 c5         1 OEQ       0.008500
     17 C9         -30.6310   -19.2090    -6.7640 c3         1 OEQ      -0.079100
     18 N1         -28.2650   -17.5840     0.9500 nc         1 OEQ      -0.691000
     19 N3         -27.1340   -18.2040    -7.5240 nu         1 OEQ      -0.751200
     20 O1         -26.6610   -19.0060   -10.3980 oh         1 OEQ      -0.739000
     21 O2         -26.9510   -21.0430    -8.8730 o          1 OEQ      -0.710000
     22 O3         -28.9910   -21.6680    -8.2650 o          1 OEQ      -0.710000
     23 O4         -25.4560   -19.5460    -4.6830 o          1 OEQ      -0.706000
     24 S          -28.5610   -20.1180    -4.3970 ss         1 OEQ      -0.167600
     25 H1         -28.9610   -17.9150    -3.5500 h1         1 OEQ       0.090700
     26 H2         -26.6860   -19.5180    -2.2960 h1         1 OEQ       0.117200
     27 H3         -26.6760   -17.8240    -2.8390 h1         1 OEQ       0.117200
     28 H4         -30.2700   -18.3580     0.8340 h5         1 OEQ       0.101100
     29 H5         -30.6000   -18.9230    -2.1500 h1         1 OEQ       0.117200
     30 H6         -29.5720   -20.3330    -1.7870 h1         1 OEQ       0.117200
     31 H7         -28.8300   -17.3890    -8.4530 h1         1 OEQ       0.030700
     32 H8         -29.7720   -19.4930    -9.2580 hc         1 OEQ       0.039700
     33 H9         -28.4030   -19.8110   -11.1610 h1         1 OEQ       0.010700
     34 H10        -29.6600   -17.6790   -11.0090 hc         1 OEQ       0.019033
     35 H11        -28.2150   -16.8580   -10.4110 hc         1 OEQ       0.019033
     36 H12        -28.2250   -17.5640   -12.0240 hc         1 OEQ       0.019033
     37 H13        -26.3140   -17.1980     0.1280 h5         1 OEQ       0.101100
     38 H14        -29.4350   -17.5360    -6.2650 hc         1 OEQ      -0.005300
     39 H15        -31.1030   -19.2250    -5.7810 hc         1 OEQ       0.031700
     40 H16        -31.2930   -18.6570    -7.4340 hc         1 OEQ       0.031700
     41 H17        -30.5580   -20.2340    -7.1230 hc         1 OEQ       0.031700
     42 H18        -26.3890   -18.3010    -8.1970 hn         1 OEQ       0.520000
     43 H19        -26.4620   -19.8130    -9.8570 ho         1 OEQ       0.520000
     44 C          -25.5920   -19.2490    -5.8820 c          1 OEQ       0.722200
@<TRIPOS>BOND
     1     1     4 2   
     2     1     5 1   
     3     1     9 1   
     4     2     3 1   
     5     2     5 1   
     6     2    24 1   
     7     2    25 1   
     8     3     9 1   
     9     3    26 1   
    10     3    27 1   
    11     4    18 1   
    12     4    28 1   
    13     5    29 1   
    14     5    30 1   
    15     6     7 1   
    16     6    16 1   
    17     6    19 1   
    18     6    31 1   
    19     7     8 1   
    20     7    13 1   
    21     7    32 1   
    22     8    12 1   
    23     8    20 1   
    24     8    33 1   
    25     9    15 1   
    26    10    44 1   
    27    11    14 2   
    28    11    19 1   
    29    11    44 1   
    30    12    34 1   
    31    12    35 1   
    32    12    36 1   
    33    13    21 1   
    34    13    22 1   
    35    14    16 1   
    36    14    24 1   
    37    15    18 2   
    38    15    37 1   
    39    16    17 1   
    40    16    38 1   
    41    17    39 1   
    42    17    40 1   
    43    17    41 1   
    44    19    42 1   
    45    20    43 1   
    46    23    44 1   
@<TRIPOS>SUBSTRUCTURE
     1 OEQ         1 TEMP              0 ****  ****    0 ROOT
