@<TRIPOS>MOLECULE
OES
   35    34     1     0     0
SMALL
bcc


@<TRIPOS>ATOM
      1 C1          -0.2170    -0.0300     7.6360 c3         1 OES      -0.089100
      2 C2           0.5840     0.1720     6.3570 c3         1 OES      -0.074400
      3 C3          -0.2450    -0.0500     5.0980 c3         1 OES      -0.076400
      4 C4           0.5480     0.1370     3.8110 c3         1 OES      -0.074400
      5 C5          -0.2810    -0.1040     2.5560 c3         1 OES      -0.075400
      6 C6           0.5130     0.0820     1.2700 c3         1 OES      -0.072400
      7 C7          -0.3110    -0.2180     0.0220 c3         1 OES      -0.054400
      8 C8           0.4920     0.0090    -1.2480 c3         1 OES      -0.029100
      9 S2          -0.4610    -0.5270    -2.6950 s4         1 OES       0.132600
     10 C22          0.6470     0.1450    -3.9620 c3         1 OES      -0.043100
     11 C23          0.1260    -0.2140    -5.3400 c3         1 OES       0.165400
     12 O2          -1.7210     0.3100    -2.7390 o          1 OES      -0.475200
     13 O3           1.0060     0.3470    -6.2850 oh         1 OES      -0.593800
     14 HC11        -0.6250    -1.0420     7.6880 hc         1 OES       0.031700
     15 HC12         0.3980     0.1230     8.5240 hc         1 OES       0.031700
     16 HC13        -1.0570     0.6650     7.6920 hc         1 OES       0.031700
     17 HC21         1.0020     1.1830     6.3410 hc         1 OES       0.036200
     18 HC22         1.4400    -0.5100     6.3510 hc         1 OES       0.036200
     19 HC31        -0.6690    -1.0610     5.1180 hc         1 OES       0.037700
     20 HC32        -1.1000     0.6360     5.1010 hc         1 OES       0.037700
     21 HC41         0.9650     1.1500     3.7850 hc         1 OES       0.036700
     22 HC42         1.4060    -0.5440     3.8130 hc         1 OES       0.036700
     23 HC51        -0.6940    -1.1180     2.5840 hc         1 OES       0.039200
     24 HC52        -1.1410     0.5750     2.5520 hc         1 OES       0.039200
     25 HC61         0.8950     1.1070     1.2200 hc         1 OES       0.038700
     26 HC62         1.3910    -0.5730     1.2860 hc         1 OES       0.038700
     27 HC71        -0.6590    -1.2550     0.0620 hc         1 OES       0.050700
     28 HC72        -1.2010     0.4150     0.0070 hc         1 OES       0.050700
     29 HC81         0.7540     1.0620    -1.3750 h1         1 OES       0.076700
     30 HC82         1.4080    -0.5860    -1.2500 h1         1 OES       0.076700
     31 H221         0.6950     1.2270    -3.8190 h1         1 OES       0.088200
     32 H222         1.6370    -0.2830    -3.7920 h1         1 OES       0.088200
     33 H231         0.0710    -1.3060    -5.4340 h1         1 OES       0.025700
     34 H232        -0.8930     0.1730    -5.4560 h1         1 OES       0.025700
     35 HO31         0.6680     0.1490    -7.1630 ho         1 OES       0.405000
@<TRIPOS>BOND
     1     1     2 1   
     2     1    14 1   
     3     1    15 1   
     4     1    16 1   
     5     2     3 1   
     6     2    17 1   
     7     2    18 1   
     8     3     4 1   
     9     3    19 1   
    10     3    20 1   
    11     4     5 1   
    12     4    21 1   
    13     4    22 1   
    14     5     6 1   
    15     5    23 1   
    16     5    24 1   
    17     6     7 1   
    18     6    25 1   
    19     6    26 1   
    20     7     8 1   
    21     7    27 1   
    22     7    28 1   
    23     8     9 1   
    24     8    29 1   
    25     8    30 1   
    26     9    10 1   
    27     9    12 2   
    28    10    11 1   
    29    10    31 1   
    30    10    32 1   
    31    11    13 1   
    32    11    33 1   
    33    11    34 1   
    34    13    35 1   
@<TRIPOS>SUBSTRUCTURE
     1 OES         1 TEMP              0 ****  ****    0 ROOT
