@<TRIPOS>MOLECULE
OES
   35    34     1     0     0
SMALL
No Charge or Current Charge


@<TRIPOS>ATOM
      1 C1          -0.1980    -0.0020     7.7400 c3         1 OES      -0.089100
      2 C2           0.5780     0.2460     6.4320 c3         1 OES      -0.074400
      3 C3          -0.2430    -0.0920     5.1690 c3         1 OES      -0.076400
      4 C4           0.5350     0.1560     3.8580 c3         1 OES      -0.074400
      5 C5          -0.2870    -0.1820     2.5940 c3         1 OES      -0.075400
      6 C6           0.4920     0.0660     1.2830 c3         1 OES      -0.072400
      7 C7          -0.3290    -0.2720     0.0200 c3         1 OES      -0.054400
      8 C8           0.4540    -0.0220    -1.2850 c3         1 OES      -0.029100
      9 S2          -0.5590    -0.4630    -2.7690 s4         1 OES       0.159400
     10 C22          0.6850     0.0520    -4.0350 c3         1 OES      -0.043100
     11 C23          0.1200    -0.1110    -5.4550 c3         1 OES       0.188600
     12 O2          -1.7040     0.5220    -2.8410 o          1 OES      -0.502000
     13 O3           1.1180     0.2600    -6.4130 oh         1 OES      -0.656000
     14 HC11        -0.4910    -1.0550     7.8240 hc         1 OES       0.031700
     15 HC12         0.4240     0.2510     8.6070 hc         1 OES       0.031700
     16 HC13        -1.1040     0.6140     7.7760 hc         1 OES       0.031700
     17 HC21         0.8870     1.2980     6.3950 hc         1 OES       0.036200
     18 HC22         1.4950    -0.3570     6.4420 hc         1 OES       0.036200
     19 HC31        -0.5520    -1.1450     5.2110 hc         1 OES       0.037700
     20 HC32        -1.1600     0.5110     5.1630 hc         1 OES       0.037700
     21 HC41         0.8430     1.2080     3.8160 hc         1 OES       0.036700
     22 HC42         1.4520    -0.4470     3.8630 hc         1 OES       0.036700
     23 HC51        -0.5950    -1.2340     2.6360 hc         1 OES       0.039200
     24 HC52        -1.2030     0.4210     2.5890 hc         1 OES       0.039200
     25 HC61         0.8000     1.1180     1.2410 hc         1 OES       0.038700
     26 HC62         1.4090    -0.5370     1.2890 hc         1 OES       0.038700
     27 HC71        -0.6370    -1.3240     0.0580 hc         1 OES       0.050700
     28 HC72        -1.2450     0.3310     0.0120 hc         1 OES       0.050700
     29 HC81         0.7360     1.0360    -1.3640 h1         1 OES       0.076700
     30 HC82         1.3620    -0.6370    -1.3030 h1         1 OES       0.076700
     31 H221         0.9520     1.1000    -3.8510 h1         1 OES       0.088200
     32 H222         1.5740    -0.5770    -3.9110 h1         1 OES       0.088200
     33 H231        -0.1840    -1.1550    -5.6060 h1         1 OES       0.025700
     34 H232        -0.7710     0.5220    -5.5670 h1         1 OES       0.025700
     35 HO31         0.7150     0.1470    -7.3030 ho         1 OES       0.444000
@<TRIPOS>BOND
     1     1     2 1   
     2     1    14 1   
     3     1    15 1   
     4     1    16 1   
     5     2     3 1   
     6     2    17 1   
     7     2    18 1   
     8     3     4 1   
     9     3    19 1   
    10     3    20 1   
    11     4     5 1   
    12     4    21 1   
    13     4    22 1   
    14     5     6 1   
    15     5    23 1   
    16     5    24 1   
    17     6     7 1   
    18     6    25 1   
    19     6    26 1   
    20     7     8 1   
    21     7    27 1   
    22     7    28 1   
    23     8     9 1   
    24     8    29 1   
    25     8    30 1   
    26     9    10 1   
    27     9    12 2   
    28    10    11 1   
    29    10    31 1   
    30    10    32 1   
    31    11    13 1   
    32    11    33 1   
    33    11    34 1   
    34    13    35 1   
@<TRIPOS>SUBSTRUCTURE
     1 OES         1 TEMP              0 ****  ****    0 ROOT
