@<TRIPOS>MOLECULE
OEU
   75    77     1     0     0
SMALL
abcg2


@<TRIPOS>ATOM
      1 C28         -4.1120    -0.5770     0.7600 c          1 OEU       0.600100
      2 C38         -8.3540    -2.1820     0.0180 c3         1 OEU      -0.047800
      3 C33         -8.5130    -0.9150    -0.7750 ca         1 OEU      -0.070300
      4 C34         -9.5270    -0.8130    -1.7250 ca         1 OEU      -0.110000
      5 C35         -9.7060     0.3420    -2.4750 ca         1 OEU      -0.107000
      6 C37         -8.8600     1.4230    -2.2800 ca         1 OEU      -0.112000
      7 C36         -7.8480     1.3330    -1.3330 ca         1 OEU      -0.105000
      8 C32         -7.6610     0.1800    -0.5750 ca         1 OEU      -0.085300
      9 C31         -6.5300     0.1250     0.4170 c3         1 OEU      -0.019100
     10 C9          -5.2750    -0.4760    -0.2060 c3         1 OEU      -0.157400
     11 O29         -4.1560    -0.1430     1.9000 o          1 OEU      -0.604100
     12 N19         -3.0250    -1.1930     0.2480 ns         1 OEU      -0.504900
     13 C18         -1.7710    -1.3060     0.9430 c3         1 OEU      -0.008300
     14 C16         -0.6370    -0.8960     0.0050 c          1 OEU       0.605100
     15 O17         -0.7840    -0.8420    -1.2050 o          1 OEU      -0.610100
     16 C20         -1.5180    -2.7360     1.4700 c3         1 OEU       0.163300
     17 O21         -1.3290    -3.6370     0.4030 oh         1 OEU      -0.650000
     18 C39         -2.6120    -3.1910     2.4200 c3         1 OEU      -0.125100
     19 N14          0.5160    -0.6240     0.6360 ns         1 OEU      -0.490900
     20 C12          1.7500    -0.2780    -0.0230 c3         1 OEU       0.030700
     21 C10          2.8340    -1.2700     0.3860 c          1 OEU       0.596100
     22 O11          2.9130    -1.6750     1.5350 o          1 OEU      -0.602100
     23 C13          2.2040     1.1370     0.3510 c3         1 OEU      -0.089400
     24 C15          1.2460     2.2150    -0.1540 c3         1 OEU      -0.029100
     25 C22          1.6760     3.5810     0.3030 ca         1 OEU      -0.081300
     26 C23          1.2260     4.0950     1.5170 ca         1 OEU      -0.106500
     27 C24          2.5690     4.3410    -0.4490 ca         1 OEU      -0.106500
     28 C25          1.6550     5.3350     1.9700 ca         1 OEU      -0.108500
     29 C27          3.0010     5.5830    -0.0010 ca         1 OEU      -0.108500
     30 C26          2.5460     6.0840     1.2120 ca         1 OEU      -0.110000
     31 C4           8.2930    -0.5590    -2.2600 ca         1 OEU      -0.094000
     32 C5           7.7310     0.0170    -1.1300 ca         1 OEU      -0.107000
     33 C6           6.6340    -0.5840    -0.5330 ca         1 OEU       0.133000
     34 C8           4.8730    -2.4070    -0.4050 c3         1 OEU       0.148300
     35 N30          3.6880    -1.5990    -0.5930 ns         1 OEU      -0.496900
     36 C1           6.0750    -1.7580    -1.0350 ca         1 OEU      -0.109300
     37 C2           6.6590    -2.3150    -2.1690 ca         1 OEU      -0.093000
     38 C3           7.7590    -1.7290    -2.7800 ca         1 OEU      -0.110000
     39 H38         -7.3710    -2.6320    -0.1270 hc         1 OEU       0.041367
     40 H38A        -8.4630    -2.0030     1.0900 hc         1 OEU       0.041367
     41 H38B        -9.0990    -2.9220    -0.2700 hc         1 OEU       0.041367
     42 H35        -10.5030     0.3940    -3.2050 ha         1 OEU       0.112000
     43 H37         -8.9870     2.3310    -2.8540 ha         1 OEU       0.113000
     44 H36         -7.1870     2.1790    -1.1750 ha         1 OEU       0.111000
     45 H31         -6.3120     1.1340     0.7720 hc         1 OEU       0.062200
     46 H31A        -6.8210    -0.4530     1.2960 hc         1 OEU       0.062200
     47 H9          -4.9600     0.1270    -1.0640 hc         1 OEU       0.063700
     48 H9A         -5.4820    -1.4720    -0.6080 hc         1 OEU       0.063700
     49 HN19        -3.0290    -1.4270    -0.7340 hn         1 OEU       0.332500
     50 H18         -1.7900    -0.6300     1.8010 h1         1 OEU       0.095700
     51 H20         -0.5710    -2.7210     2.0170 h1         1 OEU       0.081700
     52 HO21        -2.1790    -3.7910    -0.0220 ho         1 OEU       0.443000
     53 H39         -3.5730    -3.2790     1.9100 hc         1 OEU       0.049033
     54 H39A        -2.3630    -4.1670     2.8380 hc         1 OEU       0.049033
     55 H39B        -2.7330    -2.4900     3.2450 hc         1 OEU       0.049033
     56 HN14         0.5430    -0.6760     1.6430 hn         1 OEU       0.331500
     57 H12          1.5770    -0.3270    -1.0990 h1         1 OEU       0.088700
     58 H13          3.2000     1.3110    -0.0650 hc         1 OEU       0.060700
     59 H13A         2.3060     1.2070     1.4380 hc         1 OEU       0.060700
     60 H15          1.2060     2.1760    -1.2450 hc         1 OEU       0.052700
     61 H15A         0.2360     2.0110     0.2070 hc         1 OEU       0.052700
     62 H23          0.5290     3.5170     2.1140 ha         1 OEU       0.110000
     63 H24          2.9290     3.9610    -1.3990 ha         1 OEU       0.110000
     64 H25          1.2900     5.7180     2.9150 ha         1 OEU       0.112000
     65 H27          3.6940     6.1600    -0.6000 ha         1 OEU       0.112000
     66 H26          2.8800     7.0520     1.5610 ha         1 OEU       0.112000
     67 H4           9.1480    -0.0900    -2.7280 ha         1 OEU       0.120000
     68 H5           8.1440     0.9270    -0.7150 ha         1 OEU       0.131000
     69 H8           5.0210    -2.5500     0.6640 h1         1 OEU       0.070700
     70 H8A          4.7270    -3.3970    -0.8430 h1         1 OEU       0.070700
     71 HN30         3.5000    -1.2710    -1.5270 hn         1 OEU       0.318500
     72 H2           6.2400    -3.2260    -2.5770 ha         1 OEU       0.118000
     73 H3           8.1930    -2.1840    -3.6600 ha         1 OEU       0.120000
     74 CL7          5.9620     0.1520     0.8870 cl         1 OEU      -0.192000
     75 H34        -10.1910    -1.6550    -1.8800 ha         1 OEU       0.110000
@<TRIPOS>BOND
     1     1    10 1   
     2     1    11 2   
     3     1    12 1   
     4     2     3 1   
     5     2    39 1   
     6     2    40 1   
     7     2    41 1   
     8     3     4 ar  
     9     3     8 ar  
    10     4     5 ar  
    11     4    75 1   
    12     5     6 ar  
    13     5    42 1   
    14     6     7 ar  
    15     6    43 1   
    16     7     8 ar  
    17     7    44 1   
    18     8     9 1   
    19     9    10 1   
    20     9    45 1   
    21     9    46 1   
    22    10    47 1   
    23    10    48 1   
    24    12    13 1   
    25    12    49 1   
    26    13    14 1   
    27    13    16 1   
    28    13    50 1   
    29    14    15 2   
    30    14    19 1   
    31    16    17 1   
    32    16    18 1   
    33    16    51 1   
    34    17    52 1   
    35    18    53 1   
    36    18    54 1   
    37    18    55 1   
    38    19    20 1   
    39    19    56 1   
    40    20    21 1   
    41    20    23 1   
    42    20    57 1   
    43    21    22 2   
    44    21    35 1   
    45    23    24 1   
    46    23    58 1   
    47    23    59 1   
    48    24    25 1   
    49    24    60 1   
    50    24    61 1   
    51    25    26 ar  
    52    25    27 ar  
    53    26    28 ar  
    54    26    62 1   
    55    27    29 ar  
    56    27    63 1   
    57    28    30 ar  
    58    28    64 1   
    59    29    30 ar  
    60    29    65 1   
    61    30    66 1   
    62    31    32 ar  
    63    31    38 ar  
    64    31    67 1   
    65    32    33 ar  
    66    32    68 1   
    67    33    36 ar  
    68    33    74 1   
    69    34    35 1   
    70    34    36 1   
    71    34    69 1   
    72    34    70 1   
    73    35    71 1   
    74    36    37 ar  
    75    37    38 ar  
    76    37    72 1   
    77    38    73 1   
@<TRIPOS>SUBSTRUCTURE
     1 OEU         1 TEMP              0 ****  ****    0 ROOT
