@<TRIPOS>MOLECULE
OEU
   75    77     1     0     0
SMALL
No Charge or Current Charge


@<TRIPOS>ATOM
      1 C28         -4.3020    -1.5720     0.8740 c          1 OEU       0.600100
      2 C38         -8.7320     0.1880     1.1760 c3         1 OEU      -0.047800
      3 C33         -8.4580     0.4910    -0.2960 ca         1 OEU      -0.070300
      4 C34         -9.5480     0.7720    -1.1460 ca         1 OEU      -0.110000
      5 C35         -9.3410     1.0540    -2.5060 ca         1 OEU      -0.107000
      6 C37         -8.0410     1.0600    -3.0290 ca         1 OEU      -0.112000
      7 C36         -6.9480     0.7840    -2.1920 ca         1 OEU      -0.105000
      8 C32         -7.1410     0.5010    -0.8250 ca         1 OEU      -0.085300
      9 C31         -5.9130     0.2030     0.0370 c3         1 OEU      -0.019100
     10 C9          -5.5350    -1.2950     0.0120 c3         1 OEU      -0.157400
     11 O29         -4.3430    -1.5850     2.0950 o          1 OEU      -0.604100
     12 N19         -3.1460    -1.8310     0.1710 ns         1 OEU      -0.504900
     13 C18         -1.8110    -2.1010     0.7780 c3         1 OEU      -0.008300
     14 C16         -0.6930    -1.4440    -0.0760 c          1 OEU       0.605100
     15 O17         -0.8800    -1.0250    -1.2120 o          1 OEU      -0.610100
     16 C20         -1.5330    -3.6200     0.9850 c3         1 OEU       0.163300
     17 O21         -1.7850    -4.3380    -0.2290 oh         1 OEU      -0.650000
     18 C39         -2.3790    -4.2540     2.1080 c3         1 OEU      -0.125100
     19 N14          0.5370    -1.3430     0.5430 ns         1 OEU      -0.490900
     20 C12          1.7530    -0.7500    -0.0620 c3         1 OEU       0.030700
     21 C10          3.0080    -1.5830     0.3310 c          1 OEU       0.596100
     22 O11          2.9970    -2.4420     1.2060 o          1 OEU      -0.602100
     23 C13          1.9180     0.7410     0.3440 c3         1 OEU      -0.089400
     24 C15          0.7730     1.6700    -0.1180 c3         1 OEU      -0.029100
     25 C22          1.0540     3.1270     0.2230 ca         1 OEU      -0.081300
     26 C23          0.6640     3.6530     1.4700 ca         1 OEU      -0.106500
     27 C24          1.7160     3.9590    -0.7020 ca         1 OEU      -0.106500
     28 C25          0.9300     4.9960     1.7880 ca         1 OEU      -0.108500
     29 C27          1.9810     5.3030    -0.3840 ca         1 OEU      -0.108500
     30 C26          1.5880     5.8220     0.8610 ca         1 OEU      -0.110000
     31 C4           8.6360     0.3850    -2.0180 ca         1 OEU      -0.094000
     32 C5           8.0570     0.8510    -0.8260 ca         1 OEU      -0.107000
     33 C6           7.0290     0.1210    -0.2050 ca         1 OEU       0.133000
     34 C8           5.4550    -1.8970    -0.1280 c3         1 OEU       0.148300
     35 N30          4.1510    -1.2890    -0.3770 ns         1 OEU      -0.496900
     36 C1           6.5700    -1.0880    -0.7770 ca         1 OEU      -0.109300
     37 C2           7.1550    -1.5470    -1.9750 ca         1 OEU      -0.093000
     38 C3           8.1840    -0.8140    -2.5920 ca         1 OEU      -0.110000
     39 H38         -8.2760    -0.7600     1.4800 hc         1 OEU       0.041367
     40 H38A        -8.3340     0.9800     1.8210 hc         1 OEU       0.041367
     41 H38B        -9.8070     0.1090     1.3820 hc         1 OEU       0.041367
     42 H35        -10.1900     1.2690    -3.1520 ha         1 OEU       0.112000
     43 H37         -7.8790     1.2770    -4.0830 ha         1 OEU       0.113000
     44 H36         -5.9440     0.7890    -2.6110 ha         1 OEU       0.111000
     45 H31         -5.0580     0.7890    -0.3230 hc         1 OEU       0.062200
     46 H31A        -6.0680     0.5260     1.0740 hc         1 OEU       0.062200
     47 H9          -5.3420    -1.5860    -1.0270 hc         1 OEU       0.063700
     48 H9A         -6.3760    -1.8750     0.4070 hc         1 OEU       0.063700
     49 HN19        -3.1980    -1.7390    -0.8380 hn         1 OEU       0.332500
     50 H18         -1.7660    -1.6070     1.7580 h1         1 OEU       0.095700
     51 H20         -0.4790    -3.7410     1.2740 h1         1 OEU       0.081700
     52 HO21        -2.7330    -4.2000    -0.4430 ho         1 OEU       0.443000
     53 H39         -3.4470    -4.2340     1.8650 hc         1 OEU       0.049033
     54 H39A        -2.0850    -5.2990     2.2640 hc         1 OEU       0.049033
     55 H39B        -2.2290    -3.7170     3.0520 hc         1 OEU       0.049033
     56 HN14         0.6160    -1.7290     1.4780 hn         1 OEU       0.331500
     57 H12          1.6730    -0.8110    -1.1560 h1         1 OEU       0.088700
     58 H13          2.8570     1.1250    -0.0740 hc         1 OEU       0.060700
     59 H13A         2.0160     0.8080     1.4350 hc         1 OEU       0.060700
     60 H15          0.6310     1.5570    -1.2000 hc         1 OEU       0.052700
     61 H15A        -0.1680     1.3570     0.3500 hc         1 OEU       0.052700
     62 H23          0.1570     3.0190     2.1940 ha         1 OEU       0.110000
     63 H24          2.0270     3.5650    -1.6670 ha         1 OEU       0.110000
     64 H25          0.6260     5.3960     2.7530 ha         1 OEU       0.112000
     65 H27          2.4930     5.9400    -1.1020 ha         1 OEU       0.112000
     66 H26          1.7930     6.8610     1.1070 ha         1 OEU       0.112000
     67 H4           9.4320     0.9530    -2.4960 ha         1 OEU       0.120000
     68 H5           8.4040     1.7800    -0.3810 ha         1 OEU       0.131000
     69 H8           5.6270    -1.9660     0.9550 h1         1 OEU       0.070700
     70 H8A          5.4500    -2.9200    -0.5270 h1         1 OEU       0.070700
     71 HN30         4.0840    -0.5710    -1.0890 hn         1 OEU       0.318500
     72 H2           6.8120    -2.4740    -2.4320 ha         1 OEU       0.118000
     73 H3           8.6300    -1.1760    -3.5160 ha         1 OEU       0.120000
     74 Cl7          6.3260     0.7520     1.2850 cl         1 OEU      -0.192000
     75 H34        -10.5620     0.7710    -0.7530 ha         1 OEU       0.110000
@<TRIPOS>BOND
     1     1    10 1   
     2     1    11 2   
     3     1    12 1   
     4     2     3 1   
     5     2    39 1   
     6     2    40 1   
     7     2    41 1   
     8     3     4 ar  
     9     3     8 ar  
    10     4     5 ar  
    11     4    75 1   
    12     5     6 ar  
    13     5    42 1   
    14     6     7 ar  
    15     6    43 1   
    16     7     8 ar  
    17     7    44 1   
    18     8     9 1   
    19     9    10 1   
    20     9    45 1   
    21     9    46 1   
    22    10    47 1   
    23    10    48 1   
    24    12    13 1   
    25    12    49 1   
    26    13    14 1   
    27    13    16 1   
    28    13    50 1   
    29    14    15 2   
    30    14    19 1   
    31    16    17 1   
    32    16    18 1   
    33    16    51 1   
    34    17    52 1   
    35    18    53 1   
    36    18    54 1   
    37    18    55 1   
    38    19    20 1   
    39    19    56 1   
    40    20    21 1   
    41    20    23 1   
    42    20    57 1   
    43    21    22 2   
    44    21    35 1   
    45    23    24 1   
    46    23    58 1   
    47    23    59 1   
    48    24    25 1   
    49    24    60 1   
    50    24    61 1   
    51    25    26 ar  
    52    25    27 ar  
    53    26    28 ar  
    54    26    62 1   
    55    27    29 ar  
    56    27    63 1   
    57    28    30 ar  
    58    28    64 1   
    59    29    30 ar  
    60    29    65 1   
    61    30    66 1   
    62    31    32 ar  
    63    31    38 ar  
    64    31    67 1   
    65    32    33 ar  
    66    32    68 1   
    67    33    36 ar  
    68    33    74 1   
    69    34    35 1   
    70    34    36 1   
    71    34    69 1   
    72    34    70 1   
    73    35    71 1   
    74    36    37 ar  
    75    37    38 ar  
    76    37    72 1   
    77    38    73 1   
@<TRIPOS>SUBSTRUCTURE
     1 OEU         1 TEMP              0 ****  ****    0 ROOT
