@<TRIPOS>MOLECULE
OEV
   49    49     1     0     0
SMALL
abcg2


@<TRIPOS>ATOM
      1 C1          30.7800    66.5210     9.7060 c6         1 OEV       0.202700
      2 N1          30.7020    65.4710    10.7320 n7         1 OEV      -0.848400
      3 C2          32.1880    66.5850     9.1290 c6         1 OEV       0.154300
      4 O2          33.0850    67.0750    10.1210 oh         1 OEV      -0.698000
      5 C3          32.2320    67.4900     7.9010 c6         1 OEV       0.095300
      6 O3          33.5820    67.6870     7.4770 oh         1 OEV      -0.649000
      7 C4          31.3430    66.9610     6.7810 c6         1 OEV       0.181500
      8 O4          31.2150    67.9160     5.7210 oh         1 OEV      -0.706000
      9 C5          29.9980    66.5140     7.3060 c2         1 OEV      -0.194400
     10 C6          28.9620    66.2410     6.2430 c3         1 OEV       0.197800
     11 O6          27.7440    65.6920     6.7270 oh         1 OEV      -0.655000
     12 C7          29.7650    66.3410     8.6050 c2         1 OEV      -0.234200
     13 C8          29.5190    65.5410    11.5940 c3         1 OEV       0.161800
     14 C9          29.6430    66.6210    12.6700 c3         1 OEV      -0.076400
     15 C10         28.3510    66.8210    13.4790 c3         1 OEV      -0.074400
     16 C11         27.4410    67.9480    12.9760 c3         1 OEV      -0.076400
     17 C12         26.9390    67.7870    11.5410 c3         1 OEV      -0.073400
     18 C13         26.0060    68.9110    11.0750 c3         1 OEV      -0.073400
     19 C14         24.6880    69.0390    11.8470 c3         1 OEV      -0.074400
     20 C15         23.8080    67.7920    11.7800 c3         1 OEV      -0.089100
     21 H1          30.5970    67.4750    10.2100 h1         1 OEV       0.088700
     22 H2          30.7260    64.5690    10.2680 hn         1 OEV       0.408000
     23 H3          32.4890    65.5710     8.8250 h1         1 OEV       0.032700
     24 H4          33.8900    67.3390     9.6520 ho         1 OEV       0.512000
     25 H5          31.8780    68.4840     8.1910 h1         1 OEV       0.088700
     26 H6          33.9090    66.8610     7.0940 ho         1 OEV       0.443000
     27 H7          31.8420    66.1060     6.3100 h1         1 OEV       0.076700
     28 H8          30.7750    68.7010     6.0740 ho         1 OEV       0.506000
     29 H9          28.6910    67.1710     5.7400 h1         1 OEV       0.060200
     30 H10         29.4060    65.5900     5.4780 h1         1 OEV       0.060200
     31 H11         27.9310    64.8310     7.1230 ho         1 OEV       0.438000
     32 H12         28.7800    66.0160     8.9190 ha         1 OEV       0.189000
     33 H13         28.5950    65.6950    11.0240 h1         1 OEV       0.029700
     34 H14         29.4170    64.5700    12.0840 h1         1 OEV       0.029700
     35 H15         30.4660    66.3410    13.3330 hc         1 OEV       0.050700
     36 H16         29.9300    67.5720    12.2120 hc         1 OEV       0.050700
     37 H17         27.7860    65.8820    13.4990 hc         1 OEV       0.038200
     38 H18         28.6100    67.0380    14.5180 hc         1 OEV       0.038200
     39 H19         26.5860    68.0250    13.6540 hc         1 OEV       0.038200
     40 H20         27.7930    67.7550    10.8600 hc         1 OEV       0.035700
     41 H21         26.5450    69.8630    11.1360 hc         1 OEV       0.037200
     42 H22         25.7760    68.7550    10.0160 hc         1 OEV       0.037200
     43 H23         24.8920    69.2840    12.8930 hc         1 OEV       0.036200
     44 H24         24.1340    69.8910    11.4400 hc         1 OEV       0.036200
     45 H25         22.8510    67.9610    12.2790 hc         1 OEV       0.031367
     46 H26         23.6020    67.5150    10.7430 hc         1 OEV       0.031367
     47 H27         24.2850    66.9360    12.2620 hc         1 OEV       0.031367
     48 H28         27.9800    68.9000    13.0550 hc         1 OEV       0.038200
     49 H29         26.4350    66.8210    11.4410 hc         1 OEV       0.035700
@<TRIPOS>BOND
     1     1     2 1   
     2     1     3 1   
     3     1    12 1   
     4     1    21 1   
     5     2    13 1   
     6     2    22 1   
     7     3     4 1   
     8     3     5 1   
     9     3    23 1   
    10     4    24 1   
    11     5     6 1   
    12     5     7 1   
    13     5    25 1   
    14     6    26 1   
    15     7     8 1   
    16     7     9 1   
    17     7    27 1   
    18     8    28 1   
    19     9    10 1   
    20     9    12 2   
    21    10    11 1   
    22    10    29 1   
    23    10    30 1   
    24    11    31 1   
    25    12    32 1   
    26    13    14 1   
    27    13    33 1   
    28    13    34 1   
    29    14    15 1   
    30    14    35 1   
    31    14    36 1   
    32    15    16 1   
    33    15    37 1   
    34    15    38 1   
    35    16    17 1   
    36    16    39 1   
    37    16    48 1   
    38    17    18 1   
    39    17    40 1   
    40    17    49 1   
    41    18    19 1   
    42    18    41 1   
    43    18    42 1   
    44    19    20 1   
    45    19    43 1   
    46    19    44 1   
    47    20    45 1   
    48    20    46 1   
    49    20    47 1   
@<TRIPOS>SUBSTRUCTURE
     1 OEV         1 TEMP              0 ****  ****    0 ROOT
