@<TRIPOS>MOLECULE
OEV
   49    49     1     0     0
SMALL
No Charge or Current Charge


@<TRIPOS>ATOM
      1 C1          30.9360    66.4870     9.6400 c6         1 OEV       0.202700
      2 N1          30.5120    65.4780    10.6500 n7         1 OEV      -0.848400
      3 C2          32.3880    66.2090     9.1140 c6         1 OEV       0.154300
      4 O2          33.3970    66.4850    10.1050 oh         1 OEV      -0.698000
      5 C3          32.6650    67.0930     7.8730 c6         1 OEV       0.095300
      6 O3          34.0420    66.9720     7.4540 oh         1 OEV      -0.649000
      7 C4          31.7010    66.7010     6.7140 c6         1 OEV       0.181500
      8 O4          31.8290    67.6560     5.6500 oh         1 OEV      -0.706000
      9 C5          30.2440    66.6000     7.1820 c2         1 OEV      -0.194400
     10 C6          29.1950    66.5460     6.0770 c3         1 OEV       0.197800
     11 O6          28.2730    65.4810     6.3340 oh         1 OEV      -0.655000
     12 C7          29.9250    66.5080     8.4930 c2         1 OEV      -0.234200
     13 C8          29.3180    65.7380    11.4880 c3         1 OEV       0.161800
     14 C9          29.5460    66.9100    12.4760 c3         1 OEV      -0.076400
     15 C10         28.3550    67.1770    13.4330 c3         1 OEV      -0.074400
     16 C11         27.3040    68.2030    12.9360 c3         1 OEV      -0.076400
     17 C12         26.5780    67.8300    11.6200 c3         1 OEV      -0.073400
     18 C13         25.4620    68.8180    11.1970 c3         1 OEV      -0.073400
     19 C14         24.2590    68.9450    12.1660 c3         1 OEV      -0.074400
     20 C15         23.4950    67.6280    12.4120 c3         1 OEV      -0.089100
     21 H1          30.9500    67.4880    10.0990 h1         1 OEV       0.088700
     22 H2          30.3790    64.5850    10.1630 hn         1 OEV       0.408000
     23 H3          32.4530    65.1550     8.8030 h1         1 OEV       0.032700
     24 H4          34.2010    66.6750     9.5640 ho         1 OEV       0.512000
     25 H5          32.4500    68.1360     8.1530 h1         1 OEV       0.088700
     26 H6          34.0680    67.3010     6.5260 ho         1 OEV       0.443000
     27 H7          32.0000    65.7030     6.3540 h1         1 OEV       0.076700
     28 H8          31.3990    68.4850     5.9610 ho         1 OEV       0.506000
     29 H9          28.6640    67.5070     6.0300 h1         1 OEV       0.060200
     30 H10         29.6730    66.3910     5.0990 h1         1 OEV       0.060200
     31 H11         28.8180    64.6920     6.5430 ho         1 OEV       0.438000
     32 H12         28.8770    66.4400     8.7840 ha         1 OEV       0.189000
     33 H13         28.4360    65.9260    10.8660 h1         1 OEV       0.029700
     34 H14         29.0980    64.8400    12.0800 h1         1 OEV       0.029700
     35 H15         30.4280    66.6710    13.0830 hc         1 OEV       0.050700
     36 H16         29.7810    67.8330    11.9350 hc         1 OEV       0.050700
     37 H17         27.8570    66.2300    13.6790 hc         1 OEV       0.038200
     38 H18         28.7610    67.5570    14.3790 hc         1 OEV       0.038200
     39 H19         26.5630    68.3250    13.7340 hc         1 OEV       0.038200
     40 H20         27.3140    67.8080    10.8090 hc         1 OEV       0.035700
     41 H21         25.9060    69.8120    11.0580 hc         1 OEV       0.037200
     42 H22         25.0850    68.5130    10.2130 hc         1 OEV       0.037200
     43 H23         24.5920    69.3570    13.1260 hc         1 OEV       0.036200
     44 H24         23.5580    69.6780    11.7490 hc         1 OEV       0.036200
     45 H25         22.6070    67.8130    13.0280 hc         1 OEV       0.031367
     46 H26         23.1680    67.1860    11.4630 hc         1 OEV       0.031367
     47 H27         24.1240    66.9000    12.9380 hc         1 OEV       0.031367
     48 H28         27.7880    69.1800    12.8120 hc         1 OEV       0.038200
     49 H29         26.1670    66.8170    11.7000 hc         1 OEV       0.035700
@<TRIPOS>BOND
     1     1     2 1   
     2     1     3 1   
     3     1    12 1   
     4     1    21 1   
     5     2    13 1   
     6     2    22 1   
     7     3     4 1   
     8     3     5 1   
     9     3    23 1   
    10     4    24 1   
    11     5     6 1   
    12     5     7 1   
    13     5    25 1   
    14     6    26 1   
    15     7     8 1   
    16     7     9 1   
    17     7    27 1   
    18     8    28 1   
    19     9    10 1   
    20     9    12 2   
    21    10    11 1   
    22    10    29 1   
    23    10    30 1   
    24    11    31 1   
    25    12    32 1   
    26    13    14 1   
    27    13    33 1   
    28    13    34 1   
    29    14    15 1   
    30    14    35 1   
    31    14    36 1   
    32    15    16 1   
    33    15    37 1   
    34    15    38 1   
    35    16    17 1   
    36    16    39 1   
    37    16    48 1   
    38    17    18 1   
    39    17    40 1   
    40    17    49 1   
    41    18    19 1   
    42    18    41 1   
    43    18    42 1   
    44    19    20 1   
    45    19    43 1   
    46    19    44 1   
    47    20    45 1   
    48    20    46 1   
    49    20    47 1   
@<TRIPOS>SUBSTRUCTURE
     1 OEV         1 TEMP              0 ****  ****    0 ROOT
