@<TRIPOS>MOLECULE
OEW
   85    88     1     0     0
SMALL
abcg2


@<TRIPOS>ATOM
      1 O41        -19.7000   -44.1780    -0.4030 o          1 OEW      -0.597100
      2 C35        -20.6320   -44.6870     0.2170 c          1 OEW       0.604100
      3 N36        -21.3720   -45.7110    -0.2360 ns         1 OEW      -0.468900
      4 C37        -21.1520   -46.3410    -1.5040 cx         1 OEW       0.048700
      5 C39        -22.3470   -46.9010    -2.2120 cx         1 OEW      -0.134900
      6 C38        -21.6640   -45.6690    -2.7470 cx         1 OEW      -0.134900
      7 C57        -21.0670   -44.1330     1.5730 c3         1 OEW       0.075300
      8 O40        -21.5950   -45.1990     2.3490 oh         1 OEW      -0.663000
      9 C40        -22.1200   -43.0140     1.3870 c3         1 OEW       0.076700
     10 C42        -21.5610   -41.8170     0.6070 c3         1 OEW      -0.069400
     11 C45        -22.5070   -40.6210     0.5850 c5         1 OEW      -0.189700
     12 C54        -23.8760   -40.8070    -0.0710 c5         1 OEW      -0.188700
     13 C51        -23.9870   -39.5750    -0.9120 c2         1 OEW       0.464200
     14 N49        -22.9540   -38.8160    -0.9680 ne         1 OEW      -0.610100
     15 C47        -21.9400   -39.4120    -0.1540 c          1 OEW       0.670500
     16 O48        -20.8180   -38.9740    -0.0760 o          1 OEW      -0.477100
     17 N38        -22.6240   -42.6060     2.6920 ns         1 OEW      -0.513900
     18 C36        -23.8930   -42.8300     3.1030 c          1 OEW       0.573100
     19 O37        -24.6910   -43.5490     2.5150 o          1 OEW      -0.589100
     20 C20        -24.2930   -42.0280     4.3530 c3         1 OEW       0.017700
     21 C22        -25.2540   -42.7820     5.2620 c3         1 OEW      -0.071400
     22 C1         -25.3860   -42.2180     6.6800 c6         1 OEW      -0.061700
     23 C6         -26.0820   -43.2650     7.5790 c6         1 OEW      -0.070900
     24 C5         -26.7340   -42.6520     8.8310 c6         1 OEW      -0.072400
     25 C4         -25.9710   -41.4110     9.2880 c6         1 OEW      -0.075400
     26 C3         -26.0420   -40.3090     8.2140 c6         1 OEW      -0.072400
     27 C2         -26.1240   -40.8800     6.7840 c6         1 OEW      -0.070900
     28 N15        -24.7880   -40.7290     3.8260 n          1 OEW      -0.254000
     29 C21        -23.8520   -39.7170     3.6920 c          1 OEW       0.522200
     30 O22        -22.6780   -39.8550     4.0870 o          1 OEW      -0.609000
     31 C19        -24.3020   -38.5180     3.0120 cc         1 OEW      -0.038600
     32 C18        -25.5900   -38.4060     2.5620 cd         1 OEW      -0.148000
     33 C17        -26.4870   -39.4800     2.7450 cd         1 OEW      -0.252000
     34 C16        -26.0660   -40.6170     3.3530 cc         1 OEW      -0.071400
     35 N23        -23.2800   -37.5890     2.8540 ns         1 OEW      -0.404100
     36 C24        -23.2660   -36.4990     2.0260 c          1 OEW       0.658100
     37 O26        -24.2230   -36.0940     1.3930 o          1 OEW      -0.535000
     38 O25        -22.0360   -35.9700     2.0380 os         1 OEW      -0.474100
     39 C27        -21.6840   -34.7780     1.2330 c3         1 OEW       0.223000
     40 C33        -21.8600   -35.0830    -0.2490 c3         1 OEW      -0.110433
     41 C32        -22.5090   -33.5820     1.6910 c3         1 OEW      -0.110433
     42 C31        -20.2120   -34.5790     1.5690 c3         1 OEW      -0.110433
     43 H1         -22.0550   -46.1030     0.3960 hn         1 OEW       0.340500
     44 H2         -20.2180   -46.8830    -1.5820 h1         1 OEW       0.092700
     45 H3         -23.3090   -46.7700    -1.7330 hc         1 OEW       0.077950
     46 H4         -22.2230   -47.8360    -2.7410 hc         1 OEW       0.077950
     47 H5         -21.0680   -45.7550    -3.6460 hc         1 OEW       0.077950
     48 H6         -22.1690   -44.7220    -2.6150 hc         1 OEW       0.077950
     49 H7         -20.1770   -43.7100     2.0500 h1         1 OEW       0.071700
     50 H8         -21.9660   -44.8230     3.1590 ho         1 OEW       0.461000
     51 H9         -22.9690   -43.4430     0.8560 h1         1 OEW       0.085700
     52 H10        -21.3470   -42.1380    -0.4120 hc         1 OEW       0.077700
     53 H11        -20.6130   -41.5020     1.0500 hc         1 OEW       0.077700
     54 H12        -22.6410   -40.2700     1.6090 hc         1 OEW       0.080700
     55 H13        -24.7080   -40.8810     0.6300 hc         1 OEW       0.080200
     56 H14        -23.9240   -41.6920    -0.7150 hc         1 OEW       0.080200
     57 H15        -24.8890   -39.3220    -1.4620 h4         1 OEW       0.041800
     58 H16        -22.0790   -41.9410     3.2270 hn         1 OEW       0.340500
     59 H17        -23.3980   -41.7850     4.9180 h1         1 OEW       0.102700
     60 H18        -26.2370   -42.8970     4.8040 hc         1 OEW       0.062200
     61 H19        -24.8480   -43.7940     5.3370 hc         1 OEW       0.062200
     62 H20        -24.3700   -42.0620     7.0610 hc         1 OEW       0.050700
     63 H21        -26.8440   -43.7880     6.9920 hc         1 OEW       0.039700
     64 H22        -25.3450   -44.0180     7.8700 hc         1 OEW       0.039700
     65 H23        -27.7680   -42.3690     8.6100 hc         1 OEW       0.041200
     66 H24        -26.7810   -43.3970     9.6290 hc         1 OEW       0.041200
     67 H25        -26.3660   -41.0380    10.2360 hc         1 OEW       0.040700
     68 H26        -24.9280   -41.6850     9.4730 hc         1 OEW       0.040700
     69 H27        -25.1650   -39.6620     8.2980 hc         1 OEW       0.041200
     70 H28        -26.9140   -39.6750     8.3950 hc         1 OEW       0.041200
     71 H29        -25.7200   -40.1480     6.0850 hc         1 OEW       0.039700
     72 H30        -27.1690   -41.0360     6.4960 hc         1 OEW       0.039700
     73 H31        -25.9050   -37.5110     2.0510 ha         1 OEW       0.229000
     74 H32        -27.5040   -39.4110     2.3910 ha         1 OEW       0.206000
     75 H33        -26.7050   -41.4720     3.4940 h4         1 OEW       0.219000
     76 H34        -22.4020   -37.8670     3.2720 hn         1 OEW       0.356500
     77 H35        -22.9070   -35.2180    -0.5080 hc         1 OEW       0.053700
     78 H36        -21.4620   -34.2490    -0.8300 hc         1 OEW       0.053700
     79 H37        -21.3080   -35.9840    -0.5190 hc         1 OEW       0.053700
     80 H38        -23.5610   -33.7040     1.4440 hc         1 OEW       0.053700
     81 H39        -22.4080   -33.4440     2.7690 hc         1 OEW       0.053700
     82 H40        -22.1360   -32.6850     1.1950 hc         1 OEW       0.053700
     83 H41        -19.8270   -33.7190     1.0210 hc         1 OEW       0.053700
     84 H42        -20.0830   -34.3980     2.6370 hc         1 OEW       0.053700
     85 H43        -19.6320   -35.4590     1.2880 hc         1 OEW       0.053700
@<TRIPOS>BOND
     1     1     2 2   
     2     2     3 1   
     3     2     7 1   
     4     3     4 1   
     5     3    43 1   
     6     4     5 1   
     7     4     6 1   
     8     4    44 1   
     9     5     6 1   
    10     5    45 1   
    11     5    46 1   
    12     6    47 1   
    13     6    48 1   
    14     7     8 1   
    15     7     9 1   
    16     7    49 1   
    17     8    50 1   
    18     9    10 1   
    19     9    17 1   
    20     9    51 1   
    21    10    11 1   
    22    10    52 1   
    23    10    53 1   
    24    11    12 1   
    25    11    15 1   
    26    11    54 1   
    27    12    13 1   
    28    12    55 1   
    29    12    56 1   
    30    13    14 2   
    31    13    57 1   
    32    14    15 1   
    33    15    16 2   
    34    17    18 1   
    35    17    58 1   
    36    18    19 2   
    37    18    20 1   
    38    20    21 1   
    39    20    28 1   
    40    20    59 1   
    41    21    22 1   
    42    21    60 1   
    43    21    61 1   
    44    22    23 1   
    45    22    27 1   
    46    22    62 1   
    47    23    24 1   
    48    23    63 1   
    49    23    64 1   
    50    24    25 1   
    51    24    65 1   
    52    24    66 1   
    53    25    26 1   
    54    25    67 1   
    55    25    68 1   
    56    26    27 1   
    57    26    69 1   
    58    26    70 1   
    59    27    71 1   
    60    27    72 1   
    61    28    29 1   
    62    28    34 1   
    63    29    30 2   
    64    29    31 1   
    65    31    32 2   
    66    31    35 1   
    67    32    33 1   
    68    32    73 1   
    69    33    34 2   
    70    33    74 1   
    71    34    75 1   
    72    35    36 1   
    73    35    76 1   
    74    36    37 2   
    75    36    38 1   
    76    38    39 1   
    77    39    40 1   
    78    39    41 1   
    79    39    42 1   
    80    40    77 1   
    81    40    78 1   
    82    40    79 1   
    83    41    80 1   
    84    41    81 1   
    85    41    82 1   
    86    42    83 1   
    87    42    84 1   
    88    42    85 1   
@<TRIPOS>SUBSTRUCTURE
     1 OEW         1 TEMP              0 ****  ****    0 ROOT
