@<TRIPOS>MOLECULE
OEW
   85    88     1     0     0
SMALL
No Charge or Current Charge


@<TRIPOS>ATOM
      1 O41        -19.5540   -44.4170    -0.0530 o          1 OEW      -0.597100
      2 C35        -20.6660   -44.8410     0.2390 c          1 OEW       0.604100
      3 N36        -21.3100   -45.7860    -0.5310 ns         1 OEW      -0.468900
      4 C37        -20.8060   -46.3230    -1.7650 cx         1 OEW       0.048700
      5 C39        -21.7950   -46.9700    -2.7020 cx         1 OEW      -0.134900
      6 C38        -21.2010   -45.6250    -3.0430 cx         1 OEW      -0.134900
      7 C57        -21.4340   -44.4050     1.5280 c3         1 OEW       0.075300
      8 O40        -22.2690   -45.4740     2.0510 oh         1 OEW      -0.663000
      9 C40        -22.3010   -43.1200     1.3140 c3         1 OEW       0.076700
     10 C42        -21.5990   -42.0100     0.4770 c3         1 OEW      -0.069400
     11 C45        -22.3440   -40.6440     0.4030 c5         1 OEW      -0.189700
     12 C54        -23.8330   -40.6700    -0.0480 c5         1 OEW      -0.188700
     13 C51        -23.9370   -39.2660    -0.5920 c2         1 OEW       0.464200
     14 N49        -22.7830   -38.7380    -0.8520 ne         1 OEW      -0.610100
     15 C47        -21.7460   -39.6270    -0.6000 c          1 OEW       0.670500
     16 O48        -20.7350   -39.7320    -1.2740 o          1 OEW      -0.477100
     17 N38        -22.7760   -42.5630     2.5940 ns         1 OEW      -0.513900
     18 C36        -23.8270   -43.0500     3.3430 c          1 OEW       0.573100
     19 O37        -24.3440   -44.1280     3.0840 o          1 OEW      -0.589100
     20 C20        -24.3000   -42.1160     4.4850 c3         1 OEW       0.017700
     21 C22        -25.2430   -42.8370     5.5060 c3         1 OEW      -0.071400
     22 C1         -25.4110   -42.1700     6.9120 c6         1 OEW      -0.061700
     23 C6         -26.1540   -43.1460     7.8810 c6         1 OEW      -0.070900
     24 C5         -26.7740   -42.4540     9.1290 c6         1 OEW      -0.072400
     25 C4         -26.0490   -41.1370     9.4760 c6         1 OEW      -0.075400
     26 C3         -26.1440   -40.1200     8.3070 c6         1 OEW      -0.072400
     27 C2         -26.1200   -40.7850     6.8990 c6         1 OEW      -0.070900
     28 N15        -24.7850   -40.8150     3.9090 n          1 OEW      -0.254000
     29 C21        -23.8280   -39.7950     3.6820 c          1 OEW       0.522200
     30 O22        -22.6500   -39.9250     4.0040 o          1 OEW      -0.609000
     31 C19        -24.3310   -38.5750     2.9840 cc         1 OEW      -0.038600
     32 C18        -25.6520   -38.4380     2.5950 cd         1 OEW      -0.148000
     33 C17        -26.5570   -39.5250     2.8420 cd         1 OEW      -0.252000
     34 C16        -26.1050   -40.6710     3.4610 cc         1 OEW      -0.071400
     35 N23        -23.3420   -37.6120     2.7370 ns         1 OEW      -0.404100
     36 C24        -23.3600   -36.4700     1.9800 c          1 OEW       0.658100
     37 O26        -24.3080   -36.0470     1.3390 o          1 OEW      -0.535000
     38 O25        -22.1000   -35.9380     2.0260 os         1 OEW      -0.474100
     39 C27        -21.7210   -34.7630     1.2730 c3         1 OEW       0.223000
     40 C33        -21.8540   -35.0530    -0.2440 c3         1 OEW      -0.110433
     41 C32        -22.5650   -33.5480     1.7380 c3         1 OEW      -0.110433
     42 C31        -20.2360   -34.5420     1.6380 c3         1 OEW      -0.110433
     43 H1         -22.1880   -46.1250    -0.1520 hn         1 OEW       0.340500
     44 H2         -19.8030   -46.7500    -1.6970 h1         1 OEW       0.092700
     45 H3         -22.8410   -47.0010    -2.4060 hc         1 OEW       0.077950
     46 H4         -21.4580   -47.8320    -3.2720 hc         1 OEW       0.077950
     47 H5         -20.4640   -45.5830    -3.8410 hc         1 OEW       0.077950
     48 H6         -21.8440   -44.7510    -2.9700 hc         1 OEW       0.077950
     49 H7         -20.6550   -44.1580     2.2610 h1         1 OEW       0.071700
     50 H8         -23.0530   -45.0360     2.4820 ho         1 OEW       0.461000
     51 H9         -23.1900   -43.4180     0.7400 h1         1 OEW       0.085700
     52 H10        -21.4560   -42.3850    -0.5450 hc         1 OEW       0.077700
     53 H11        -20.5940   -41.8430     0.8840 hc         1 OEW       0.077700
     54 H12        -22.3140   -40.1500     1.3780 hc         1 OEW       0.080700
     55 H13        -24.5340   -40.8500     0.7740 hc         1 OEW       0.080200
     56 H14        -24.0270   -41.4030    -0.8400 hc         1 OEW       0.080200
     57 H15        -24.8610   -38.7100    -0.7280 h4         1 OEW       0.041800
     58 H16        -22.4030   -41.6660     2.8950 hn         1 OEW       0.340500
     59 H17        -23.3860   -41.9150     5.0570 h1         1 OEW       0.102700
     60 H18        -26.2210   -43.0370     5.0570 hc         1 OEW       0.062200
     61 H19        -24.8120   -43.8320     5.6790 hc         1 OEW       0.062200
     62 H20        -24.3920   -42.0190     7.2970 hc         1 OEW       0.050700
     63 H21        -26.9550   -43.6760     7.3470 hc         1 OEW       0.039700
     64 H22        -25.4490   -43.9230     8.2090 hc         1 OEW       0.039700
     65 H23        -27.8350   -42.2380     8.9380 hc         1 OEW       0.041200
     66 H24        -26.7510   -43.1390     9.9870 hc         1 OEW       0.041200
     67 H25        -26.4730   -40.6980    10.3890 hc         1 OEW       0.040700
     68 H26        -24.9940   -41.3510     9.6980 hc         1 OEW       0.040700
     69 H27        -25.3160   -39.4040     8.3920 hc         1 OEW       0.041200
     70 H28        -27.0650   -39.5280     8.4050 hc         1 OEW       0.041200
     71 H29        -25.6250   -40.0910     6.2100 hc         1 OEW       0.039700
     72 H30        -27.1480   -40.9080     6.5300 hc         1 OEW       0.039700
     73 H31        -26.0190   -37.5430     2.1030 ha         1 OEW       0.229000
     74 H32        -27.5970   -39.4540     2.5280 ha         1 OEW       0.206000
     75 H33        -26.7260   -41.5410     3.6410 h4         1 OEW       0.219000
     76 H34        -22.4250   -37.7890     3.1330 hn         1 OEW       0.356500
     77 H35        -22.9010   -35.0980    -0.5630 hc         1 OEW       0.053700
     78 H36        -21.3710   -34.2610    -0.8280 hc         1 OEW       0.053700
     79 H37        -21.3730   -36.0040    -0.5010 hc         1 OEW       0.053700
     80 H38        -23.5970   -33.6030     1.3750 hc         1 OEW       0.053700
     81 H39        -22.5850   -33.4840     2.8320 hc         1 OEW       0.053700
     82 H40        -22.1360   -32.6160     1.3520 hc         1 OEW       0.053700
     83 H41        -19.8320   -33.6660     1.1160 hc         1 OEW       0.053700
     84 H42        -20.1200   -34.3790     2.7160 hc         1 OEW       0.053700
     85 H43        -19.6320   -35.4130     1.3570 hc         1 OEW       0.053700
@<TRIPOS>BOND
     1     1     2 2   
     2     2     3 1   
     3     2     7 1   
     4     3     4 1   
     5     3    43 1   
     6     4     5 1   
     7     4     6 1   
     8     4    44 1   
     9     5     6 1   
    10     5    45 1   
    11     5    46 1   
    12     6    47 1   
    13     6    48 1   
    14     7     8 1   
    15     7     9 1   
    16     7    49 1   
    17     8    50 1   
    18     9    10 1   
    19     9    17 1   
    20     9    51 1   
    21    10    11 1   
    22    10    52 1   
    23    10    53 1   
    24    11    12 1   
    25    11    15 1   
    26    11    54 1   
    27    12    13 1   
    28    12    55 1   
    29    12    56 1   
    30    13    14 2   
    31    13    57 1   
    32    14    15 1   
    33    15    16 2   
    34    17    18 1   
    35    17    58 1   
    36    18    19 2   
    37    18    20 1   
    38    20    21 1   
    39    20    28 1   
    40    20    59 1   
    41    21    22 1   
    42    21    60 1   
    43    21    61 1   
    44    22    23 1   
    45    22    27 1   
    46    22    62 1   
    47    23    24 1   
    48    23    63 1   
    49    23    64 1   
    50    24    25 1   
    51    24    65 1   
    52    24    66 1   
    53    25    26 1   
    54    25    67 1   
    55    25    68 1   
    56    26    27 1   
    57    26    69 1   
    58    26    70 1   
    59    27    71 1   
    60    27    72 1   
    61    28    29 1   
    62    28    34 1   
    63    29    30 2   
    64    29    31 1   
    65    31    32 2   
    66    31    35 1   
    67    32    33 1   
    68    32    73 1   
    69    33    34 2   
    70    33    74 1   
    71    34    75 1   
    72    35    36 1   
    73    35    76 1   
    74    36    37 2   
    75    36    38 1   
    76    38    39 1   
    77    39    40 1   
    78    39    41 1   
    79    39    42 1   
    80    40    77 1   
    81    40    78 1   
    82    40    79 1   
    83    41    80 1   
    84    41    81 1   
    85    41    82 1   
    86    42    83 1   
    87    42    84 1   
    88    42    85 1   
@<TRIPOS>SUBSTRUCTURE
     1 OEW         1 TEMP              0 ****  ****    0 ROOT
