@<TRIPOS>MOLECULE
OEZ
   48    51     1     0     0
SMALL
abcg2


@<TRIPOS>ATOM
      1 CAM        125.2370    -0.0030    61.6910 cy         1 OEZ      -0.106400
      2 CAN        125.9260    -1.3830    61.8420 cy         1 OEZ      -0.091400
      3 CAO        124.9740    -1.6840    63.0270 cy         1 OEZ      -0.106400
      4 CAL        124.0390    -0.5700    62.4830 cy         1 OEZ       0.090700
      5 NAK        123.3710     0.3150    63.4020 ns         1 OEZ      -0.489900
      6 CAJ        122.0630     0.2100    63.7290 c          1 OEZ       0.619700
      7 OAP        121.3360    -0.6720    63.2580 o          1 OEZ      -0.615100
      8 CAI        121.5300     1.2190    64.6930 ca         1 OEZ      -0.187600
      9 CAH        122.1380     2.4560    64.9120 ca         1 OEZ      -0.034000
     10 CAQ        120.3580     0.9230    65.3850 ca         1 OEZ      -0.016000
     11 CAR        119.8200     1.8280    66.2870 ca         1 OEZ      -0.212000
     12 CAS        120.4400     3.0590    66.5060 ca         1 OEZ       0.166100
     13 OAT        119.9690     3.9780    67.3800 os         1 OEZ      -0.350100
     14 CAU        118.7840     3.6850    68.1220 c3         1 OEZ       0.148900
     15 CAG        121.6230     3.3930    65.8070 ca         1 OEZ      -0.048800
     16 CAF        122.2950     4.6830    65.9960 cc         1 OEZ      -0.081200
     17 CAE        121.7180     5.9340    66.2360 cc         1 OEZ      -0.100000
     18 CAV        123.6900     4.8980    65.9340 cd         1 OEZ       0.384500
     19 NAW        124.6980     4.0360    65.7570 nd         1 OEZ      -0.652000
     20 CAX        125.9280     4.5090    65.7550 cc         1 OEZ       0.362900
     21 CAY        126.2250     5.8770    65.9300 cc         1 OEZ      -0.213000
     22 CAZ        125.1980     6.7540    66.1210 cd         1 OEZ      -0.054000
     23 NBA        123.9250     6.2740    66.1280 na         1 OEZ      -0.010400
     24 CAD        122.7060     6.9190    66.3130 cd         1 OEZ      -0.265300
     25 CAB        122.5610     8.3360    66.5380 c          1 OEZ       0.609300
     26 OAA        123.5260     9.1060    66.5690 o          1 OEZ      -0.571100
     27 CAC        121.1560     8.8550    66.7410 c3         1 OEZ      -0.182100
     28 H1         125.7550     0.7630    62.2720 hc         1 OEZ       0.053950
     29 H2         125.0410     0.3770    60.6880 hc         1 OEZ       0.053950
     30 H3         125.7220    -2.0280    60.9870 hc         1 OEZ       0.052200
     31 H4         126.9960    -1.3880    62.0430 hc         1 OEZ       0.052200
     32 H5         124.5570    -2.6870    63.1150 hc         1 OEZ       0.053950
     33 H6         125.4120    -1.3860    63.9810 hc         1 OEZ       0.053950
     34 H7         123.2870    -0.9920    61.8210 h1         1 OEZ       0.088700
     35 H8         123.9470     0.9650    63.9120 hn         1 OEZ       0.314500
     36 H9         123.0230     2.7340    64.3590 ha         1 OEZ       0.126000
     37 H10        119.8700    -0.0270    65.2190 ha         1 OEZ       0.137000
     38 H11        118.9180     1.5680    66.8210 ha         1 OEZ       0.121000
     39 H12        118.6080     4.5560    68.7480 h1         1 OEZ       0.044700
     40 H13        117.9340     3.5300    67.4560 h1         1 OEZ       0.044700
     41 H14        118.9250     2.8030    68.7510 h1         1 OEZ       0.044700
     42 H15        120.6650     6.1250    66.3370 ha         1 OEZ       0.215000
     43 H16        126.7290     3.7920    65.6140 h4         1 OEZ       0.030100
     44 H17        127.2450     6.2310    65.9170 ha         1 OEZ       0.143000
     45 H18        125.3080     7.8150    66.2730 h4         1 OEZ       0.183000
     46 H19        121.1910     9.9370    66.8510 hc         1 OEZ       0.064033
     47 H20        120.5170     8.5940    65.8950 hc         1 OEZ       0.064033
     48 H21        120.7120     8.4130    67.6360 hc         1 OEZ       0.064033
@<TRIPOS>BOND
     1     1     2 1   
     2     1     4 1   
     3     1    28 1   
     4     1    29 1   
     5     2     3 1   
     6     2    30 1   
     7     2    31 1   
     8     3     4 1   
     9     3    32 1   
    10     3    33 1   
    11     4     5 1   
    12     4    34 1   
    13     5     6 1   
    14     5    35 1   
    15     6     7 2   
    16     6     8 1   
    17     8     9 ar  
    18     8    10 ar  
    19     9    15 ar  
    20     9    36 1   
    21    10    11 ar  
    22    10    37 1   
    23    11    12 ar  
    24    11    38 1   
    25    12    13 1   
    26    12    15 ar  
    27    13    14 1   
    28    14    39 1   
    29    14    40 1   
    30    14    41 1   
    31    15    16 1   
    32    16    17 1   
    33    16    18 2   
    34    17    24 2   
    35    17    42 1   
    36    18    19 1   
    37    18    23 1   
    38    19    20 2   
    39    20    21 1   
    40    20    43 1   
    41    21    22 2   
    42    21    44 1   
    43    22    23 1   
    44    22    45 1   
    45    23    24 1   
    46    24    25 1   
    47    25    26 2   
    48    25    27 1   
    49    27    46 1   
    50    27    47 1   
    51    27    48 1   
@<TRIPOS>SUBSTRUCTURE
     1 OEZ         1 TEMP              0 ****  ****    0 ROOT
