@<TRIPOS>MOLECULE
OEZ
   48    51     1     0     0
SMALL
No Charge or Current Charge


@<TRIPOS>ATOM
      1 CAM        125.3860    -0.0750    61.6610 cy         1 OEZ      -0.106400
      2 CAN        125.7830    -1.5880    61.6420 cy         1 OEZ      -0.091400
      3 CAO        124.9530    -1.6930    62.9630 cy         1 OEZ      -0.106400
      4 CAL        124.0710    -0.5480    62.3640 cy         1 OEZ       0.090700
      5 NAK        123.3890     0.3540    63.2490 ns         1 OEZ      -0.489900
      6 CAJ        122.1840     0.0780    63.8590 c          1 OEZ       0.619700
      7 OAP        121.6030    -0.9830    63.6690 o          1 OEZ      -0.615100
      8 CAI        121.6190     1.1510    64.7670 ca         1 OEZ      -0.187600
      9 CAH        122.2220     2.4240    64.8960 ca         1 OEZ      -0.034000
     10 CAQ        120.4480     0.8830    65.5000 ca         1 OEZ      -0.016000
     11 CAR        119.8970     1.8590    66.3420 ca         1 OEZ      -0.212000
     12 CAS        120.5070     3.1250    66.4760 ca         1 OEZ       0.166100
     13 OAT        119.9890     4.0720    67.3420 os         1 OEZ      -0.350100
     14 CAU        118.8040     3.8490    68.1280 c3         1 OEZ       0.148900
     15 CAG        121.6940     3.4180    65.7530 ca         1 OEZ      -0.048800
     16 CAF        122.3460     4.7480    65.8450 cc         1 OEZ      -0.081200
     17 CAE        121.7530     6.0180    66.1490 cc         1 OEZ      -0.100000
     18 CAV        123.7150     4.9420    65.8550 cd         1 OEZ       0.384500
     19 NAW        124.6590     3.9290    65.7710 nd         1 OEZ      -0.652000
     20 CAX        125.8710     4.4640    65.8980 cc         1 OEZ       0.362900
     21 CAY        126.1700     5.8580    66.1250 cc         1 OEZ      -0.213000
     22 CAZ        125.1840     6.8300    66.2390 cd         1 OEZ      -0.054000
     23 NBA        123.9040     6.3000    66.0700 na         1 OEZ      -0.010400
     24 CAD        122.7140     7.0070    66.2770 cd         1 OEZ      -0.265300
     25 CAB        122.4550     8.4470    66.5790 c          1 OEZ       0.609300
     26 OAA        123.3590     9.2670    66.6760 o          1 OEZ      -0.571100
     27 CAC        121.0070     8.8950    66.7680 c3         1 OEZ      -0.182100
     28 H1         126.0340     0.5590    62.2780 hc         1 OEZ       0.053950
     29 H2         125.2600     0.4000    60.6820 hc         1 OEZ       0.053950
     30 H3         125.3750    -2.1580    60.7980 hc         1 OEZ       0.052200
     31 H4         126.8530    -1.8050    61.7280 hc         1 OEZ       0.052200
     32 H5         124.4430    -2.6470    63.1350 hc         1 OEZ       0.053950
     33 H6         125.5020    -1.4200    63.8720 hc         1 OEZ       0.053950
     34 H7         123.3370    -0.9270    61.6400 h1         1 OEZ       0.088700
     35 H8         123.8130     1.2430    63.4740 hn         1 OEZ       0.314500
     36 H9         123.0880     2.6670    64.2900 ha         1 OEZ       0.126000
     37 H10        119.9570    -0.0850    65.4210 ha         1 OEZ       0.137000
     38 H11        118.9960     1.6050    66.8910 ha         1 OEZ       0.121000
     39 H12        118.5800     4.7340    68.7350 h1         1 OEZ       0.044700
     40 H13        117.9380     3.6510    67.4830 h1         1 OEZ       0.044700
     41 H14        118.9410     2.9980    68.8080 h1         1 OEZ       0.044700
     42 H15        120.6800     6.1650    66.2460 ha         1 OEZ       0.215000
     43 H16        126.6680     3.7360    65.8260 h4         1 OEZ       0.030100
     44 H17        127.2140     6.1340    66.2210 ha         1 OEZ       0.143000
     45 H18        125.3350     7.8850    66.4290 h4         1 OEZ       0.183000
     46 H19        120.9210     9.9650    66.9870 hc         1 OEZ       0.064033
     47 H20        120.4300     8.6180    65.8790 hc         1 OEZ       0.064033
     48 H21        120.5450     8.2850    67.5520 hc         1 OEZ       0.064033
@<TRIPOS>BOND
     1     1     2 1   
     2     1     4 1   
     3     1    28 1   
     4     1    29 1   
     5     2     3 1   
     6     2    30 1   
     7     2    31 1   
     8     3     4 1   
     9     3    32 1   
    10     3    33 1   
    11     4     5 1   
    12     4    34 1   
    13     5     6 1   
    14     5    35 1   
    15     6     7 2   
    16     6     8 1   
    17     8     9 ar  
    18     8    10 ar  
    19     9    15 ar  
    20     9    36 1   
    21    10    11 ar  
    22    10    37 1   
    23    11    12 ar  
    24    11    38 1   
    25    12    13 1   
    26    12    15 ar  
    27    13    14 1   
    28    14    39 1   
    29    14    40 1   
    30    14    41 1   
    31    15    16 1   
    32    16    17 1   
    33    16    18 2   
    34    17    24 2   
    35    17    42 1   
    36    18    19 1   
    37    18    23 1   
    38    19    20 2   
    39    20    21 1   
    40    20    43 1   
    41    21    22 2   
    42    21    44 1   
    43    22    23 1   
    44    22    45 1   
    45    23    24 1   
    46    24    25 1   
    47    25    26 2   
    48    25    27 1   
    49    27    46 1   
    50    27    47 1   
    51    27    48 1   
@<TRIPOS>SUBSTRUCTURE
     1 OEZ         1 TEMP              0 ****  ****    0 ROOT
