@<TRIPOS>MOLECULE
OF4
   49    52     1     0     0
SMALL
No Charge or Current Charge


@<TRIPOS>ATOM
      1 C10          0.4740    -0.3130    -0.6610 ca         1 OF4      -0.073500
      2 C11          0.8510    -1.3830     0.1880 ca         1 OF4      -0.134600
      3 C21          6.3600    -1.0690    -0.2460 ca         1 OF4      -0.117000
      4 C1          -5.7470    -0.2350     0.6690 cc         1 OF4       0.160400
      5 C12         -0.0800    -2.4250     0.4040 ca         1 OF4      -0.073500
      6 C13         -1.3460    -2.4000    -0.2060 ca         1 OF4      -0.124000
      7 C14          2.2080    -1.4460     0.8640 c          1 OF4       0.605700
      8 C15          4.4210    -0.2670     1.1640 c3         1 OF4       0.153300
      9 C16          5.4370    -0.0440     0.0460 ca         1 OF4      -0.098300
     10 C17          5.4880     1.1720    -0.6900 ca         1 OF4      -0.123600
     11 C18          6.4730     1.3320    -1.6880 ca         1 OF4      -0.093000
     12 C19          7.3870     0.3040    -1.9670 ca         1 OF4      -0.137000
     13 C2          -4.7360     0.0560    -0.1960 cd         1 OF4      -0.294600
     14 C20          7.3290    -0.8980    -1.2480 ca         1 OF4      -0.141000
     15 C3          -4.3480     1.4570    -0.4440 c          1 OF4       0.623600
     16 C4          -6.0840     1.9300     1.1080 cd         1 OF4       0.725800
     17 C5          -4.2230    -1.1620    -0.7190 cd         1 OF4      -0.049300
     18 C6          -4.9430    -2.1940    -0.1610 cc         1 OF4      -0.203000
     19 C8          -1.7130    -1.3340    -1.0460 ca         1 OF4      -0.074300
     20 C9          -0.7940    -0.2940    -1.2690 ca         1 OF4      -0.124000
     21 N1          -6.4680     0.7040     1.3630 nc         1 OF4      -0.720100
     22 N2          -5.1040     2.3230     0.2750 ns         1 OF4      -0.454400
     23 N3          -5.8820    -1.6100     0.6970 na         1 OF4      -0.110000
     24 N5           3.0680    -0.3990     0.6300 ns         1 OF4      -0.473900
     25 O2           2.5300    -2.3820     1.5860 o          1 OF4      -0.656100
     26 O3           4.9800     3.4010    -0.1480 o          1 OF4      -0.723000
     27 O4           3.3250     2.0980    -0.6040 o          1 OF4      -0.723000
     28 H1           1.1490     0.5130    -0.8660 ha         1 OF4       0.137000
     29 H2           6.3300    -2.0050     0.3080 ha         1 OF4       0.100000
     30 H3           0.1750    -3.2630     1.0500 ha         1 OF4       0.137000
     31 H4          -2.0440    -3.2140    -0.0240 ha         1 OF4       0.112000
     32 H5           4.6900    -1.1610     1.7410 h1         1 OF4       0.052200
     33 H6           4.4420     0.5870     1.8530 h1         1 OF4       0.052200
     34 H7           6.5230     2.2610    -2.2540 ha         1 OF4       0.125000
     35 H8           8.1390     0.4390    -2.7410 ha         1 OF4       0.086000
     36 H9           8.0360    -1.6960    -1.4630 ha         1 OF4       0.086000
     37 H10         -4.8630    -3.2660    -0.2970 h4         1 OF4       0.147000
     38 H11         -3.2250    -2.2500    -2.2650 hc         1 OF4       0.053700
     39 H12         -3.1430    -0.5240    -2.4590 hc         1 OF4       0.053700
     40 H13         -1.0600     0.5380    -1.9170 ha         1 OF4       0.112000
     41 H14         -4.8860     3.2990     0.1730 hn         1 OF4       0.320500
     42 H15         -6.5630    -2.1050     1.2600 hn         1 OF4       0.353000
     43 H16         -6.8310     3.7730     1.2830 hn         1 OF4       0.490000
     44 H17         -7.5940     2.5460     2.2020 hn         1 OF4       0.490000
     45 H18          2.7440     0.3560     0.0330 hn         1 OF4       0.371500
     46 C7          -3.0890    -1.3170    -1.7040 c3         1 OF4       0.040200
     47 N4          -6.7530     2.8750     1.7450 nv         1 OF4      -1.041200
     48 C22          4.5190     2.3070    -0.4400 c          1 OF4       0.717600
     49 O1          -3.4650     1.8320    -1.1980 o          1 OF4      -0.543000
@<TRIPOS>BOND
     1     1     2 ar  
     2     1    20 ar  
     3     1    28 1   
     4     2     5 ar  
     5     2     7 1   
     6     3     9 ar  
     7     3    14 ar  
     8     3    29 1   
     9     4    13 2   
    10     4    21 1   
    11     4    23 1   
    12     5     6 ar  
    13     5    30 1   
    14     6    19 ar  
    15     6    31 1   
    16     7    24 1   
    17     7    25 2   
    18     8     9 1   
    19     8    24 1   
    20     8    32 1   
    21     8    33 1   
    22     9    10 ar  
    23    10    11 ar  
    24    10    48 1   
    25    11    12 ar  
    26    11    34 1   
    27    12    14 ar  
    28    12    35 1   
    29    13    15 1   
    30    13    17 1   
    31    14    36 1   
    32    15    22 1   
    33    15    49 2   
    34    16    21 2   
    35    16    22 1   
    36    16    47 1   
    37    17    18 2   
    38    17    46 1   
    39    18    23 1   
    40    18    37 1   
    41    19    20 ar  
    42    19    46 1   
    43    20    40 1   
    44    22    41 1   
    45    23    42 1   
    46    24    45 1   
    47    26    48 1   
    48    27    48 1   
    49    38    46 1   
    50    39    46 1   
    51    43    47 1   
    52    44    47 1   
@<TRIPOS>SUBSTRUCTURE
     1 OF4         1 TEMP              0 ****  ****    0 ROOT
