@<TRIPOS>MOLECULE
OF4
   49    52     1     0     0
SMALL
abcg2


@<TRIPOS>ATOM
      1 C10          0.3980    -0.4180    -0.5150 ca         1 OF4      -0.073500
      2 C11          0.9680    -1.5900    -0.0180 ca         1 OF4      -0.134600
      3 C21          5.9990    -0.9900    -0.2490 ca         1 OF4      -0.117000
      4 C1          -5.3700    -0.0100     0.7550 cc         1 OF4       0.160400
      5 C12          0.2310    -2.7690    -0.1000 ca         1 OF4      -0.073500
      6 C13         -1.0450    -2.7720    -0.6400 ca         1 OF4      -0.124000
      7 C14          2.3420    -1.6590     0.5730 c          1 OF4       0.605700
      8 C15          4.2440    -0.3390     1.3820 c3         1 OF4       0.153300
      9 C16          5.1300    -0.0000     0.2060 ca         1 OF4      -0.098300
     10 C17          5.1130     1.2480    -0.4380 ca         1 OF4      -0.123600
     11 C18          5.9790     1.4500    -1.5140 ca         1 OF4      -0.093000
     12 C19          6.8240     0.4510    -1.9720 ca         1 OF4      -0.137000
     13 C2          -4.4690     0.1060    -0.3050 cd         1 OF4      -0.294600
     14 C20          6.8390    -0.7790    -1.3320 ca         1 OF4      -0.141000
     15 C3          -4.2260     1.4050    -0.8310 c          1 OF4       0.623600
     16 C4          -5.7820     2.1690     0.9130 cd         1 OF4       0.725800
     17 C5          -4.0310    -1.2140    -0.6470 cd         1 OF4      -0.049300
     18 C6          -4.6790    -2.0540     0.2090 cc         1 OF4      -0.203000
     19 C8          -1.6190    -1.6010    -1.1280 ca         1 OF4      -0.074300
     20 C9          -0.8750    -0.4270    -1.0640 ca         1 OF4      -0.124000
     21 N1          -6.0350     0.9790     1.3830 nc         1 OF4      -0.720100
     22 N2          -4.9340     2.3890    -0.1340 ns         1 OF4      -0.454400
     23 N3          -5.4830    -1.3180     1.0530 na         1 OF4      -0.110000
     24 N5           2.8640    -0.4980     0.9860 ns         1 OF4      -0.473900
     25 O2           2.9160    -2.7370     0.6950 o          1 OF4      -0.656100
     26 O3           4.6230     3.5510    -0.3290 o          1 OF4      -0.723000
     27 O4           3.1240     2.1600     0.5280 o          1 OF4      -0.723000
     28 H1           0.9400     0.5200    -0.5080 ha         1 OF4       0.137000
     29 H2           6.0130    -1.9470     0.2590 ha         1 OF4       0.100000
     30 H3           0.6570    -3.6950     0.2630 ha         1 OF4       0.137000
     31 H4          -1.5990    -3.7010    -0.6890 ha         1 OF4       0.112000
     32 H5           4.5920    -1.2590     1.8490 h1         1 OF4       0.052200
     33 H6           4.2870     0.4410     2.1420 h1         1 OF4       0.052200
     34 H7           5.9850     2.4130    -2.0060 ha         1 OF4       0.125000
     35 H8           7.4710     0.6340    -2.8200 ha         1 OF4       0.086000
     36 H9           7.4980    -1.5680    -1.6710 ha         1 OF4       0.086000
     37 H10         -4.6310    -3.1280     0.2940 h4         1 OF4       0.147000
     38 H11         -3.2560    -2.6130    -2.0470 hc         1 OF4       0.053700
     39 H12         -3.0860    -0.9380    -2.5390 hc         1 OF4       0.053700
     40 H13         -1.2950     0.4950    -1.4460 ha         1 OF4       0.112000
     41 H14         -4.8020     3.3380    -0.4590 hn         1 OF4       0.320500
     42 H15         -6.0720    -1.6990     1.7760 hn         1 OF4       0.353000
     43 H16         -6.3450     4.1360     0.9990 hn         1 OF4       0.490000
     44 H17         -7.1020     3.0970     2.1150 hn         1 OF4       0.490000
     45 H18          2.4500     0.3980     0.7510 hn         1 OF4       0.371500
     46 C7          -3.0230    -1.6110    -1.6830 c3         1 OF4       0.040200
     47 N4          -6.3330     3.2560     1.4870 nv         1 OF4      -1.041200
     48 C22          4.2120     2.4160    -0.0390 c          1 OF4       0.717600
     49 O1          -3.5130     1.7280    -1.7730 o          1 OF4      -0.543000
@<TRIPOS>BOND
     1     1     2 ar  
     2     1    20 ar  
     3     1    28 1   
     4     2     5 ar  
     5     2     7 1   
     6     3     9 ar  
     7     3    14 ar  
     8     3    29 1   
     9     4    13 2   
    10     4    21 1   
    11     4    23 1   
    12     5     6 ar  
    13     5    30 1   
    14     6    19 ar  
    15     6    31 1   
    16     7    24 1   
    17     7    25 2   
    18     8     9 1   
    19     8    24 1   
    20     8    32 1   
    21     8    33 1   
    22     9    10 ar  
    23    10    11 ar  
    24    10    48 1   
    25    11    12 ar  
    26    11    34 1   
    27    12    14 ar  
    28    12    35 1   
    29    13    15 1   
    30    13    17 1   
    31    14    36 1   
    32    15    22 1   
    33    15    49 2   
    34    16    21 2   
    35    16    22 1   
    36    16    47 1   
    37    17    18 2   
    38    17    46 1   
    39    18    23 1   
    40    18    37 1   
    41    19    20 ar  
    42    19    46 1   
    43    20    40 1   
    44    22    41 1   
    45    23    42 1   
    46    24    45 1   
    47    26    48 1   
    48    27    48 1   
    49    38    46 1   
    50    39    46 1   
    51    43    47 1   
    52    44    47 1   
@<TRIPOS>SUBSTRUCTURE
     1 OF4         1 TEMP              0 ****  ****    0 ROOT
