@<TRIPOS>MOLECULE
OF5
   38    40     1     0     0
SMALL
No Charge or Current Charge


@<TRIPOS>ATOM
      1 CAC          3.9670    31.6020   -12.2270 c3         1 OF5      -0.182100
      2 CAB          4.9700    30.4680   -12.0150 c          1 OF5       0.610300
      3 OAA          4.5700    29.3130   -11.9520 o          1 OF5      -0.573100
      4 CAD          6.4120    30.8270   -11.8940 cc         1 OF5      -0.267300
      5 CAE          6.9260    32.1110   -11.9470 cd         1 OF5      -0.099000
      6 NAV          7.5650    30.0710   -11.6960 na         1 OF5      -0.011400
      7 CAU          7.5650    28.6820   -11.5600 cc         1 OF5      -0.056000
      8 CAT          8.8450    28.1680   -11.3690 cd         1 OF5      -0.213000
      9 CAS         10.0280    28.9970   -11.3160 cd         1 OF5       0.360900
     10 NAR         10.0070    30.3210   -11.4380 nc         1 OF5      -0.644000
     11 CAQ          8.7330    30.8020   -11.6050 cc         1 OF5       0.386500
     12 CAF          8.3570    32.1180   -11.8060 cd         1 OF5      -0.081200
     13 CAG          9.2060    33.3410   -11.7190 ca         1 OF5      -0.001800
     14 CAH         10.3610    33.3490   -10.9000 ca         1 OF5      -0.138000
     15 CAI         11.1710    34.4990   -10.7870 ca         1 OF5       0.101100
     16 OAJ         12.3000    34.5420    -9.9920 os         1 OF5      -0.353100
     17 CAK         12.7550    33.4060    -9.2350 c3         1 OF5       0.148900
     18 CAL         10.8270    35.6570   -11.4940 ca         1 OF5      -0.105000
     19 CAM          9.6880    35.6760   -12.3110 ca         1 OF5      -0.161000
     20 CAN          8.8730    34.5270   -12.4320 ca         1 OF5       0.107100
     21 OAO          7.7810    34.5230   -13.2840 os         1 OF5      -0.354100
     22 CAP          7.3880    35.6700   -14.0600 c3         1 OF5       0.149900
     23 H1           2.9360    31.2420   -12.3160 hc         1 OF5       0.063367
     24 H2           4.0690    32.3260   -11.4120 hc         1 OF5       0.063367
     25 H3           4.2660    32.1840   -13.1060 hc         1 OF5       0.063367
     26 H4           6.3230    33.0090   -12.0540 ha         1 OF5       0.215000
     27 H5           6.6430    28.1190   -11.6120 h4         1 OF5       0.182000
     28 H6           8.9670    27.0960   -11.2560 ha         1 OF5       0.142000
     29 H7          11.0160    28.5790   -11.1730 h4         1 OF5       0.030100
     30 H8          10.6070    32.4700   -10.3190 ha         1 OF5       0.132000
     31 H9          13.6720    33.6560    -8.6870 h1         1 OF5       0.040700
     32 H10         11.9970    33.0950    -8.5040 h1         1 OF5       0.040700
     33 H11         12.9750    32.5580    -9.8970 h1         1 OF5       0.040700
     34 H12         11.4490    36.5450   -11.4080 ha         1 OF5       0.126000
     35 H13          9.4620    36.5920   -12.8500 ha         1 OF5       0.117000
     36 H14          6.4970    35.4380   -14.6550 h1         1 OF5       0.039700
     37 H15          7.1490    36.5200   -13.4070 h1         1 OF5       0.039700
     38 H16          8.1890    35.9680   -14.7500 h1         1 OF5       0.039700
@<TRIPOS>BOND
     1     1     2 1   
     2     1    23 1   
     3     1    24 1   
     4     1    25 1   
     5     2     3 2   
     6     2     4 1   
     7     4     5 2   
     8     4     6 1   
     9     5    12 1   
    10     5    26 1   
    11     6     7 1   
    12     6    11 1   
    13     7     8 2   
    14     7    27 1   
    15     8     9 1   
    16     8    28 1   
    17     9    10 2   
    18     9    29 1   
    19    10    11 1   
    20    11    12 2   
    21    12    13 1   
    22    13    14 ar  
    23    13    20 ar  
    24    14    15 ar  
    25    14    30 1   
    26    15    16 1   
    27    15    18 ar  
    28    16    17 1   
    29    17    31 1   
    30    17    32 1   
    31    17    33 1   
    32    18    19 ar  
    33    18    34 1   
    34    19    20 ar  
    35    19    35 1   
    36    20    21 1   
    37    21    22 1   
    38    22    36 1   
    39    22    37 1   
    40    22    38 1   
@<TRIPOS>SUBSTRUCTURE
     1 OF5         1 TEMP              0 ****  ****    0 ROOT
