@<TRIPOS>MOLECULE
OF5
   38    40     1     0     0
SMALL
abcg2


@<TRIPOS>ATOM
      1 CAC          3.9730    31.4810   -12.0640 c3         1 OF5      -0.182100
      2 CAB          5.0550    30.4360   -11.9090 c          1 OF5       0.610300
      3 OAA          4.7670    29.2370   -11.8410 o          1 OF5      -0.573100
      4 CAD          6.4130    30.9140   -11.8380 cc         1 OF5      -0.267300
      5 CAE          6.8910    32.2260   -11.8840 cd         1 OF5      -0.099000
      6 NAV          7.5260    30.0920   -11.6900 na         1 OF5      -0.011400
      7 CAU          7.6320    28.7380   -11.6090 cc         1 OF5      -0.056000
      8 CAT          8.8730    28.1860   -11.4840 cd         1 OF5      -0.213000
      9 CAS          9.9960    29.0400   -11.4530 cd         1 OF5       0.360900
     10 NAR          9.9030    30.3520   -11.5290 nc         1 OF5      -0.644000
     11 CAQ          8.6840    30.8940   -11.6410 cc         1 OF5       0.386500
     12 CAF          8.2840    32.2440   -11.7570 cd         1 OF5      -0.081200
     13 CAG          9.1720    33.4110   -11.7100 ca         1 OF5      -0.001800
     14 CAH         10.2950    33.3950   -10.8710 ca         1 OF5      -0.138000
     15 CAI         11.1540    34.4850   -10.7900 ca         1 OF5       0.101100
     16 OAJ         12.2610    34.5300    -9.9880 os         1 OF5      -0.353100
     17 CAK         12.5610    33.3830    -9.1970 c3         1 OF5       0.148900
     18 CAL         10.8930    35.6190   -11.5540 ca         1 OF5      -0.105000
     19 CAM          9.7880    35.6540   -12.3920 ca         1 OF5      -0.161000
     20 CAN          8.9240    34.5630   -12.4800 ca         1 OF5       0.107100
     21 OAO          7.8330    34.5380   -13.3010 os         1 OF5      -0.354100
     22 CAP          7.5560    35.6840   -14.0990 c3         1 OF5       0.149900
     23 H1           3.0160    30.9830   -12.2030 hc         1 OF5       0.063367
     24 H2           3.9260    32.1100   -11.1720 hc         1 OF5       0.063367
     25 H3           4.1740    32.1330   -12.9150 hc         1 OF5       0.063367
     26 H4           6.2660    33.0950   -11.9910 ha         1 OF5       0.215000
     27 H5           6.7090    28.1840   -11.6520 h4         1 OF5       0.182000
     28 H6           8.9860    27.1150   -11.4150 ha         1 OF5       0.142000
     29 H7          10.9930    28.6230   -11.3660 h4         1 OF5       0.030100
     30 H8          10.4730    32.5110   -10.2810 ha         1 OF5       0.132000
     31 H9          13.4710    33.6230    -8.6530 h1         1 OF5       0.040700
     32 H10         11.7570    33.1700    -8.4880 h1         1 OF5       0.040700
     33 H11         12.7310    32.5050    -9.8250 h1         1 OF5       0.040700
     34 H12         11.5590    36.4700   -11.4890 ha         1 OF5       0.126000
     35 H13          9.6080    36.5430   -12.9790 ha         1 OF5       0.117000
     36 H14          6.6570    35.4440   -14.6610 h1         1 OF5       0.039700
     37 H15          7.3750    36.5650   -13.4780 h1         1 OF5       0.039700
     38 H16          8.3760    35.8920   -14.7920 h1         1 OF5       0.039700
@<TRIPOS>BOND
     1     1     2 1   
     2     1    23 1   
     3     1    24 1   
     4     1    25 1   
     5     2     3 2   
     6     2     4 1   
     7     4     5 2   
     8     4     6 1   
     9     5    12 1   
    10     5    26 1   
    11     6     7 1   
    12     6    11 1   
    13     7     8 2   
    14     7    27 1   
    15     8     9 1   
    16     8    28 1   
    17     9    10 2   
    18     9    29 1   
    19    10    11 1   
    20    11    12 2   
    21    12    13 1   
    22    13    14 ar  
    23    13    20 ar  
    24    14    15 ar  
    25    14    30 1   
    26    15    16 1   
    27    15    18 ar  
    28    16    17 1   
    29    17    31 1   
    30    17    32 1   
    31    17    33 1   
    32    18    19 ar  
    33    18    34 1   
    34    19    20 ar  
    35    19    35 1   
    36    20    21 1   
    37    21    22 1   
    38    22    36 1   
    39    22    37 1   
    40    22    38 1   
@<TRIPOS>SUBSTRUCTURE
     1 OF5         1 TEMP              0 ****  ****    0 ROOT
