@<TRIPOS>MOLECULE
OF6
   26    27     1     0     0
SMALL
bcc


@<TRIPOS>ATOM
      1 C10         18.6580   -14.0760    -1.3990 c3         1 OF6       0.134500
      2 C13         16.2580   -14.4950    -0.6370 cc         1 OF6      -0.200400
      3 C15         15.5460   -13.5870     3.8140 ca         1 OF6      -0.112000
      4 C02         15.5530   -13.2160     5.1470 ca         1 OF6       0.024400
      5 C03         16.6740   -12.6540     5.7370 ca         1 OF6      -0.109000
      6 C04         17.8090   -12.4640     4.9610 ca         1 OF6      -0.126000
      7 C05         17.8220   -12.8280     3.6250 ca         1 OF6      -0.086000
      8 C06         16.6880   -13.3920     3.0400 ca         1 OF6      -0.123500
      9 C07         16.7180   -13.7690     1.6250 cc         1 OF6       0.488900
     10 C09         17.5330   -14.0840    -0.4040 cd         1 OF6       0.316600
     11 C12         19.4450   -16.3210    -0.9160 c3         1 OF6       0.144100
     12 N08         17.7730   -13.6790     0.8770 nd         1 OF6      -0.651000
     13 N11         19.7840   -14.9190    -1.0510 n7         1 OF6      -0.799200
     14 S14         15.3230   -14.3650     0.7890 ss         1 OF6      -0.158300
     15 H102        19.0220   -13.0520    -1.5170 h1         1 OF6       0.063700
     16 H101        18.2710   -14.3860    -2.3730 h1         1 OF6       0.063700
     17 H131        15.8340   -14.8650    -1.5580 h4         1 OF6       0.181000
     18 H151        14.6500   -14.0270     3.3940 ha         1 OF6       0.148000
     19 H031        16.6650   -12.3700     6.7810 ha         1 OF6       0.150000
     20 H041        18.6910   -12.0270     5.4070 ha         1 OF6       0.140000
     21 H051        18.7120   -12.6740     3.0300 ha         1 OF6       0.158000
     22 H122        20.3400   -16.8890    -0.6620 h1         1 OF6       0.030033
     23 H123        18.6830   -16.5430    -0.1570 h1         1 OF6       0.030033
     24 H121        19.0730   -16.7010    -1.8700 h1         1 OF6       0.030033
     25 H111        20.1980   -14.5850    -0.1900 hn         1 OF6       0.367800
     26 CL01        14.1260   -13.4630     6.0960 cl         1 OF6      -0.106400
@<TRIPOS>BOND
     1     1    10 1   
     2     1    13 1   
     3     1    15 1   
     4     1    16 1   
     5     2    10 2   
     6     2    14 1   
     7     2    17 1   
     8     3     4 ar  
     9     3     8 ar  
    10     3    18 1   
    11     4     5 ar  
    12     4    26 1   
    13     5     6 ar  
    14     5    19 1   
    15     6     7 ar  
    16     6    20 1   
    17     7     8 ar  
    18     7    21 1   
    19     8     9 1   
    20     9    12 2   
    21     9    14 1   
    22    10    12 1   
    23    11    13 1   
    24    11    22 1   
    25    11    23 1   
    26    11    24 1   
    27    13    25 1   
@<TRIPOS>SUBSTRUCTURE
     1 OF6         1 TEMP              0 ****  ****    0 ROOT
