@<TRIPOS>MOLECULE
OF6
   26    27     1     0     0
SMALL
No Charge or Current Charge


@<TRIPOS>ATOM
      1 C10         18.6420   -14.0750    -1.4490 c3         1 OF6       0.134500
      2 C13         16.2530   -14.5450    -0.6130 cc         1 OF6      -0.262000
      3 C15         15.4990   -13.5140     3.8460 ca         1 OF6      -0.094000
      4 C02         15.4870   -13.1350     5.1990 ca         1 OF6       0.116000
      5 C03         16.6420   -12.6130     5.8000 ca         1 OF6      -0.091000
      6 C04         17.8150   -12.4690     5.0430 ca         1 OF6      -0.108000
      7 C05         17.8320   -12.8460     3.6880 ca         1 OF6      -0.068000
      8 C06         16.6740   -13.3750     3.0660 ca         1 OF6      -0.123500
      9 C07         16.7030   -13.7690     1.6430 cc         1 OF6       0.488900
     10 C09         17.5360   -14.0980    -0.4030 cd         1 OF6       0.251300
     11 C12         19.5610   -16.3770    -1.0630 c3         1 OF6       0.144100
     12 N08         17.7930   -13.6550     0.8900 nd         1 OF6      -0.651000
     13 N11         19.8170   -14.9230    -1.1020 n7         1 OF6      -0.854400
     14 S14         15.2950   -14.4200     0.8310 ss         1 OF6      -0.013400
     15 H102        18.9590   -13.0300    -1.5700 h1         1 OF6       0.063700
     16 H101        18.2160   -14.3860    -2.4140 h1         1 OF6       0.063700
     17 H131        15.8160   -14.9390    -1.5210 h4         1 OF6       0.163000
     18 H151        14.5840   -13.9140     3.4190 ha         1 OF6       0.130000
     19 H031        16.6270   -12.3220     6.8470 ha         1 OF6       0.132000
     20 H041        18.7130   -12.0640     5.5040 ha         1 OF6       0.122000
     21 H051        18.7540   -12.7240     3.1240 ha         1 OF6       0.140000
     22 H122        20.4790   -16.9230    -0.8070 h1         1 OF6       0.030033
     23 H123        18.7990   -16.6250    -0.3120 h1         1 OF6       0.030033
     24 H121        19.2110   -16.7390    -2.0400 h1         1 OF6       0.030033
     25 H111        20.1270   -14.6320    -0.1640 hn         1 OF6       0.423000
     26 Cl01        14.0160   -13.3170     6.1460 cl         1 OF6      -0.198000
@<TRIPOS>BOND
     1     1    10 1   
     2     1    13 1   
     3     1    15 1   
     4     1    16 1   
     5     2    10 2   
     6     2    14 1   
     7     2    17 1   
     8     3     4 ar  
     9     3     8 ar  
    10     3    18 1   
    11     4     5 ar  
    12     4    26 1   
    13     5     6 ar  
    14     5    19 1   
    15     6     7 ar  
    16     6    20 1   
    17     7     8 ar  
    18     7    21 1   
    19     8     9 1   
    20     9    12 2   
    21     9    14 1   
    22    10    12 1   
    23    11    13 1   
    24    11    22 1   
    25    11    23 1   
    26    11    24 1   
    27    13    25 1   
@<TRIPOS>SUBSTRUCTURE
     1 OF6         1 TEMP              0 ****  ****    0 ROOT
