@<TRIPOS>MOLECULE
OF7
   49    52     1     0     0
SMALL
No Charge or Current Charge


@<TRIPOS>ATOM
      1 N1           6.0810    -0.7840     1.5190 nc         1 OF7      -0.722100
      2 C1           5.4680     0.2030     0.7890 cc         1 OF7       0.161400
      3 O1           3.2800    -1.7110    -1.3350 o          1 OF7      -0.543000
      4 N2           4.7530    -2.3120     0.2670 ns         1 OF7      -0.453400
      5 C2           4.5300    -0.0200    -0.1730 cd         1 OF7      -0.292600
      6 O2          -2.7700     2.8840     0.8490 o          1 OF7      -0.649100
      7 N3           5.6610     1.5700     0.8670 na         1 OF7      -0.110000
      8 C3           4.1050    -1.3950    -0.4930 c          1 OF7       0.624600
      9 O3          -2.7010    -2.1580    -0.4910 o          1 OF7      -0.720000
     10 C10         -0.0390     2.7150     0.0470 ca         1 OF7      -0.070500
     11 C11         -0.9950     1.7160    -0.2510 ca         1 OF7      -0.137600
     12 C12         -0.5950     0.6320    -1.0710 ca         1 OF7      -0.070500
     13 C13          0.7190     0.5520    -1.5630 ca         1 OF7      -0.125500
     14 C14         -2.4050     1.8480     0.2990 c          1 OF7       0.612700
     15 C15         -4.6010     0.5250     0.4920 ca         1 OF7      -0.019000
     16 C16         -5.3470    -0.4780    -0.1810 ca         1 OF7      -0.051300
     17 C17         -6.6830    -0.7240     0.1990 ca         1 OF7      -0.110000
     18 C18         -7.2790     0.0060     1.2380 ca         1 OF7      -0.143000
     19 C19         -6.5430     0.9880     1.9120 ca         1 OF7      -0.127000
     20 C20         -5.2120     1.2440     1.5460 ca         1 OF7      -0.123000
     21 C21         -4.7420    -1.3040    -1.3230 c3         1 OF7      -0.179100
     22 C22         -3.8640    -2.4260    -0.7470 c          1 OF7       0.725000
     23 C4           5.6680    -1.9840     1.1970 cd         1 OF7       0.725800
     24 C5           4.1210     1.2330    -0.7070 cd         1 OF7      -0.049300
     25 C6           4.8310     2.2160    -0.0560 cc         1 OF7      -0.205000
     26 C7           3.0900     1.4640    -1.7860 c3         1 OF7       0.041200
     27 C8           1.6640     1.5460    -1.2530 ca         1 OF7      -0.074300
     28 C9           1.2740     2.6290    -0.4470 ca         1 OF7      -0.125500
     29 N4           6.2340    -2.9730     1.8660 nv         1 OF7      -1.041200
     30 N5          -3.2470     0.7590     0.1120 ns         1 OF7      -0.162000
     31 O4          -4.3980    -3.4850    -0.4520 o          1 OF7      -0.720000
     32 H1           4.5030    -3.2750     0.1190 hn         1 OF7       0.321500
     33 H2           6.3080     2.0200     1.5030 hn         1 OF7       0.352000
     34 H3          -0.3100     3.5660     0.6710 ha         1 OF7       0.142500
     35 H4          -1.2910    -0.1530    -1.3510 ha         1 OF7       0.142500
     36 H5           1.0020    -0.2900    -2.1910 ha         1 OF7       0.112500
     37 H6          -7.2640    -1.4900    -0.3110 ha         1 OF7       0.105000
     38 H7          -8.3100    -0.1940     1.5230 ha         1 OF7       0.090000
     39 H8          -7.0000     1.5480     2.7250 ha         1 OF7       0.090000
     40 H9          -4.6630     1.9950     2.1050 ha         1 OF7       0.118000
     41 H10         -5.5720    -1.7440    -1.8890 hc         1 OF7       0.038200
     42 H11         -4.1370    -0.6280    -1.9390 hc         1 OF7       0.038200
     43 H12          4.8110     3.2940    -0.1690 h4         1 OF7       0.147000
     44 H13          3.3270     2.3960    -2.3140 hc         1 OF7       0.053700
     45 H14          3.1700     0.6800    -2.5490 hc         1 OF7       0.053700
     46 H15          1.9910     3.4090    -0.2000 ha         1 OF7       0.112500
     47 H16          7.0420    -2.6830     2.4010 hn         1 OF7       0.489500
     48 H17          6.3240    -3.8630     1.3920 hn         1 OF7       0.489500
     49 H18         -2.8160    -0.0300    -0.3540 hn         1 OF7       0.237000
@<TRIPOS>BOND
     1     1     2 1   
     2     1    23 2   
     3     2     5 2   
     4     2     7 1   
     5     3     8 2   
     6     4     8 1   
     7     4    23 1   
     8     4    32 1   
     9     5     8 1   
    10     5    24 1   
    11     6    14 2   
    12     7    25 1   
    13     7    33 1   
    14     9    22 1   
    15    10    11 ar  
    16    10    28 ar  
    17    10    34 1   
    18    11    12 ar  
    19    11    14 1   
    20    12    13 ar  
    21    12    35 1   
    22    13    27 ar  
    23    13    36 1   
    24    14    30 1   
    25    15    16 ar  
    26    15    20 ar  
    27    15    30 1   
    28    16    17 ar  
    29    16    21 1   
    30    17    18 ar  
    31    17    37 1   
    32    18    19 ar  
    33    18    38 1   
    34    19    20 ar  
    35    19    39 1   
    36    20    40 1   
    37    21    22 1   
    38    21    41 1   
    39    21    42 1   
    40    22    31 1   
    41    23    29 1   
    42    24    25 2   
    43    24    26 1   
    44    25    43 1   
    45    26    27 1   
    46    26    44 1   
    47    26    45 1   
    48    27    28 ar  
    49    28    46 1   
    50    29    47 1   
    51    29    48 1   
    52    30    49 1   
@<TRIPOS>SUBSTRUCTURE
     1 OF7         1 TEMP              0 ****  ****    0 ROOT
