@<TRIPOS>MOLECULE
OF7
   49    52     1     0     0
SMALL
abcg2


@<TRIPOS>ATOM
      1 N1           5.7360    -0.9570     1.5980 nc         1 OF7      -0.722100
      2 C1           5.1520     0.0490     0.9180 cc         1 OF7       0.161400
      3 O1           3.5260    -1.6360    -1.7980 o          1 OF7      -0.543000
      4 N2           4.7680    -2.3350    -0.0350 ns         1 OF7      -0.453400
      5 C2           4.3610    -0.0420    -0.2290 cd         1 OF7      -0.292600
      6 O2          -3.0140     2.9330     0.0720 o          1 OF7      -0.649100
      7 N3           5.2550     1.3520     1.2400 na         1 OF7      -0.110000
      8 C3           4.1490    -1.3330    -0.7880 c          1 OF7       0.624600
      9 O3          -2.5580    -1.9650     0.0460 o          1 OF7      -0.720000
     10 C10         -0.2770     2.9050    -0.4520 ca         1 OF7      -0.070500
     11 C11         -1.0480     1.7450    -0.4920 ca         1 OF7      -0.137600
     12 C12         -0.4580     0.5730    -0.9670 ca         1 OF7      -0.070500
     13 C13          0.8660     0.5660    -1.3780 ca         1 OF7      -0.125500
     14 C14         -2.4740     1.8410    -0.0480 c          1 OF7       0.612700
     15 C15         -4.4420     0.5230     0.5770 ca         1 OF7      -0.019000
     16 C16         -5.1700    -0.5210    -0.0150 ca         1 OF7      -0.051300
     17 C17         -6.4860    -0.7210     0.3940 ca         1 OF7      -0.110000
     18 C18         -7.0850     0.0910     1.3450 ca         1 OF7      -0.143000
     19 C19         -6.3570     1.1270     1.9130 ca         1 OF7      -0.127000
     20 C20         -5.0400     1.3390     1.5340 ca         1 OF7      -0.123000
     21 C21         -4.5810    -1.4010    -1.0860 c3         1 OF7      -0.179100
     22 C22         -3.5570    -2.4340    -0.5640 c          1 OF7       0.725000
     23 C4           5.5140    -2.1380     1.0920 cd         1 OF7       0.725800
     24 C5           3.9830     1.2870    -0.6010 cd         1 OF7      -0.049300
     25 C6           4.5540     2.1100     0.3250 cc         1 OF7      -0.205000
     26 C7           3.0940     1.7100    -1.7320 c3         1 OF7       0.041200
     27 C8           1.6410     1.7210    -1.3250 ca         1 OF7      -0.074300
     28 C9           1.0470     2.8900    -0.8560 ca         1 OF7      -0.125500
     29 N4           5.9920    -3.2390     1.7020 nv         1 OF7      -1.041200
     30 N5          -3.0950     0.6720     0.2080 ns         1 OF7      -0.162000
     31 O4          -3.7720    -3.6310    -0.7870 o          1 OF7      -0.720000
     32 H1           4.6450    -3.2800    -0.3740 hn         1 OF7       0.321500
     33 H2           5.7730     1.7160     2.0220 hn         1 OF7       0.352000
     34 H3          -0.7150     3.8290    -0.1010 ha         1 OF7       0.142500
     35 H4          -1.0170    -0.3510    -1.0390 ha         1 OF7       0.142500
     36 H5           1.3030    -0.3540    -1.7460 ha         1 OF7       0.112500
     37 H6          -7.0580    -1.5210    -0.0600 ha         1 OF7       0.105000
     38 H7          -8.1120    -0.0830     1.6380 ha         1 OF7       0.090000
     39 H8          -6.8090     1.7680     2.6600 ha         1 OF7       0.090000
     40 H9          -4.4710     2.1310     1.9990 ha         1 OF7       0.118000
     41 H10         -5.3890    -1.9180    -1.6030 hc         1 OF7       0.038200
     42 H11         -4.0780    -0.7750    -1.8320 hc         1 OF7       0.038200
     43 H12          4.5160     3.1830     0.4150 h4         1 OF7       0.147000
     44 H13          3.3800     2.7110    -2.0610 hc         1 OF7       0.053700
     45 H14          3.2320     1.0410    -2.5820 hc         1 OF7       0.053700
     46 H15          1.6290     3.8040    -0.8110 ha         1 OF7       0.112500
     47 H16          6.6830    -3.0970     2.4190 hn         1 OF7       0.489500
     48 H17          6.0620    -4.1070     1.1970 hn         1 OF7       0.489500
     49 H18         -2.6280    -0.2430     0.0890 hn         1 OF7       0.237000
@<TRIPOS>BOND
     1     1     2 1   
     2     1    23 2   
     3     2     5 2   
     4     2     7 1   
     5     3     8 2   
     6     4     8 1   
     7     4    23 1   
     8     4    32 1   
     9     5     8 1   
    10     5    24 1   
    11     6    14 2   
    12     7    25 1   
    13     7    33 1   
    14     9    22 1   
    15    10    11 ar  
    16    10    28 ar  
    17    10    34 1   
    18    11    12 ar  
    19    11    14 1   
    20    12    13 ar  
    21    12    35 1   
    22    13    27 ar  
    23    13    36 1   
    24    14    30 1   
    25    15    16 ar  
    26    15    20 ar  
    27    15    30 1   
    28    16    17 ar  
    29    16    21 1   
    30    17    18 ar  
    31    17    37 1   
    32    18    19 ar  
    33    18    38 1   
    34    19    20 ar  
    35    19    39 1   
    36    20    40 1   
    37    21    22 1   
    38    21    41 1   
    39    21    42 1   
    40    22    31 1   
    41    23    29 1   
    42    24    25 2   
    43    24    26 1   
    44    25    43 1   
    45    26    27 1   
    46    26    44 1   
    47    26    45 1   
    48    27    28 ar  
    49    28    46 1   
    50    29    47 1   
    51    29    48 1   
    52    30    49 1   
@<TRIPOS>SUBSTRUCTURE
     1 OF7         1 TEMP              0 ****  ****    0 ROOT
