@<TRIPOS>MOLECULE
OF8
   29    31     1     0     0
SMALL
No Charge or Current Charge


@<TRIPOS>ATOM
      1 CAC        -20.0140    -8.9300   -20.3540 c3         1 OF8      -0.187100
      2 CAB        -20.4490    -9.8500   -21.4950 c          1 OF8       0.615300
      3 OAA        -20.5680    -9.3960   -22.6250 o          1 OF8      -0.560100
      4 CAD        -20.7130   -11.2830   -21.1720 cc         1 OF8      -0.267300
      5 CAE        -20.6020   -11.8560   -19.9160 cd         1 OF8      -0.122000
      6 NAR        -21.1170   -12.3700   -21.9460 na         1 OF8      -0.004400
      7 CAQ        -21.3640   -12.2960   -23.3170 cc         1 OF8      -0.064000
      8 CAP        -21.7430   -13.5250   -23.8540 cd         1 OF8      -0.209000
      9 CAO        -21.8600   -14.7310   -23.0620 cd         1 OF8       0.361900
     10 NAN        -21.6210   -14.7820   -21.7540 nc         1 OF8      -0.611000
     11 CAM        -21.2670   -13.5570   -21.2550 cc         1 OF8       0.413500
     12 CAF        -20.9240   -13.2550   -19.9580 cd         1 OF8      -0.222800
     13 CAG        -20.9600   -14.1500   -18.7880 ca         1 OF8       0.448800
     14 NAL        -21.9190   -15.1060   -18.7500 nb         1 OF8      -0.650000
     15 CAK        -22.0200   -15.8750   -17.6430 ca         1 OF8       0.342900
     16 CAJ        -21.1950   -15.7080   -16.5190 ca         1 OF8      -0.172000
     17 CAI        -20.2260   -14.6950   -16.5310 ca         1 OF8      -0.073000
     18 CAH        -20.1210   -13.8980   -17.6820 ca         1 OF8      -0.163000
     19 H1         -19.8390    -7.9010   -20.6860 hc         1 OF8       0.063033
     20 H2         -20.7630    -8.9730   -19.5560 hc         1 OF8       0.063033
     21 H3         -19.1250    -9.3540   -19.8730 hc         1 OF8       0.063033
     22 H4         -20.3200   -11.3220   -19.0100 ha         1 OF8       0.205000
     23 H5         -21.2550   -11.3630   -23.8520 h4         1 OF8       0.179000
     24 H6         -21.9600   -13.5890   -24.9150 ha         1 OF8       0.142000
     25 H7         -22.1510   -15.6770   -23.4980 h4         1 OF8       0.033100
     26 H8         -22.7910   -16.6450   -17.6560 h4         1 OF8       0.018100
     27 H9         -21.3180   -16.3510   -15.6520 ha         1 OF8       0.122000
     28 H10        -19.5770   -14.5290   -15.6720 ha         1 OF8       0.116000
     29 H11        -19.3840   -13.1020   -17.7220 ha         1 OF8       0.118000
@<TRIPOS>BOND
     1     1     2 1   
     2     1    19 1   
     3     1    20 1   
     4     1    21 1   
     5     2     3 2   
     6     2     4 1   
     7     4     5 2   
     8     4     6 1   
     9     5    12 1   
    10     5    22 1   
    11     6     7 1   
    12     6    11 1   
    13     7     8 2   
    14     7    23 1   
    15     8     9 1   
    16     8    24 1   
    17     9    10 2   
    18     9    25 1   
    19    10    11 1   
    20    11    12 2   
    21    12    13 1   
    22    13    14 ar  
    23    13    18 ar  
    24    14    15 ar  
    25    15    16 ar  
    26    15    26 1   
    27    16    17 ar  
    28    16    27 1   
    29    17    18 ar  
    30    17    28 1   
    31    18    29 1   
@<TRIPOS>SUBSTRUCTURE
     1 OF8         1 TEMP              0 ****  ****    0 ROOT
