@<TRIPOS>MOLECULE
OF8
   29    31     1     0     0
SMALL
bcc


@<TRIPOS>ATOM
      1 CAC        -19.9980    -8.9770   -20.4520 c3         1 OF8      -0.187100
      2 CAB        -20.4360    -9.9380   -21.5280 c          1 OF8       0.615300
      3 OAA        -20.5540    -9.5820   -22.6910 o          1 OF8      -0.560100
      4 CAD        -20.7040   -11.2950   -21.0990 cc         1 OF8      -0.267300
      5 CAE        -20.6160   -11.8340   -19.8250 cd         1 OF8      -0.072000
      6 NAR        -21.1220   -12.3160   -21.9330 na         1 OF8      -0.055100
      7 CAQ        -21.3500   -12.3340   -23.2720 cc         1 OF8      -0.031300
      8 CAP        -21.7440   -13.4980   -23.8490 cd         1 OF8      -0.292300
      9 CAO        -21.8900   -14.6400   -23.0350 cd         1 OF8       0.427200
     10 NAN        -21.6760   -14.6270   -21.7460 nc         1 OF8      -0.611000
     11 CAM        -21.3020   -13.4770   -21.1810 cc         1 OF8       0.413500
     12 CAF        -20.9850   -13.1790   -19.8460 cd         1 OF8      -0.222800
     13 CAG        -21.0240   -14.0860   -18.7010 ca         1 OF8       0.514100
     14 NAL        -21.8760   -15.1110   -18.7420 nb         1 OF8      -0.650000
     15 CAK        -21.9290   -15.9350   -17.7050 ca         1 OF8       0.408200
     16 CAJ        -21.1580   -15.7890   -16.5620 ca         1 OF8      -0.255300
     17 CAI        -20.2730   -14.7210   -16.5140 ca         1 OF8      -0.091000
     18 CAH        -20.1970   -13.8630   -17.5950 ca         1 OF8      -0.246300
     19 H1         -19.8170    -7.9950   -20.8820 hc         1 OF8       0.063033
     20 H2         -20.7600    -8.8850   -19.6770 hc         1 OF8       0.063033
     21 H3         -19.0840    -9.3230   -19.9660 hc         1 OF8       0.063033
     22 H4         -20.3280   -11.2750   -18.9470 ha         1 OF8       0.155000
     23 H5         -21.2020   -11.4140   -23.8130 h4         1 OF8       0.197000
     24 H6         -21.9320   -13.5410   -24.9110 ha         1 OF8       0.160000
     25 H7         -22.1920   -15.5830   -23.4740 h4         1 OF8       0.033100
     26 H8         -22.6320   -16.7580   -17.7840 h4         1 OF8       0.018100
     27 H9         -21.2490   -16.4890   -15.7440 ha         1 OF8       0.140000
     28 H10        -19.6420   -14.5640   -15.6490 ha         1 OF8       0.134000
     29 H11        -19.4970   -13.0390   -17.5900 ha         1 OF8       0.136000
@<TRIPOS>BOND
     1     1     2 1   
     2     1    19 1   
     3     1    20 1   
     4     1    21 1   
     5     2     3 2   
     6     2     4 1   
     7     4     5 2   
     8     4     6 1   
     9     5    12 1   
    10     5    22 1   
    11     6     7 1   
    12     6    11 1   
    13     7     8 2   
    14     7    23 1   
    15     8     9 1   
    16     8    24 1   
    17     9    10 2   
    18     9    25 1   
    19    10    11 1   
    20    11    12 2   
    21    12    13 1   
    22    13    14 ar  
    23    13    18 ar  
    24    14    15 ar  
    25    15    16 ar  
    26    15    26 1   
    27    16    17 ar  
    28    16    27 1   
    29    17    18 ar  
    30    17    28 1   
    31    18    29 1   
@<TRIPOS>SUBSTRUCTURE
     1 OF8         1 TEMP              0 ****  ****    0 ROOT
