@<TRIPOS>MOLECULE
OF9
   72    75     1     0     0
SMALL
No Charge or Current Charge


@<TRIPOS>ATOM
      1 C10         23.4010     1.5180     1.7060 c5         1 OF9       0.171000
      2 C13         23.7850     0.8410     3.0430 c5         1 OF9      -0.135400
      3 C15         25.5860     2.4760     3.8730 c          1 OF9       0.600100
      4 C17         26.9220     4.5840     3.4660 c3         1 OF9       0.128700
      5 C20         24.1900     6.1350     3.1150 ca         1 OF9      -0.103500
      6 C21         22.8250     6.2650     2.8040 ca         1 OF9      -0.104500
      7 C22         22.3860     6.1030     1.4790 ca         1 OF9      -0.103000
      8 C24         24.6770     5.6760     0.7760 ca         1 OF9      -0.103500
      9 C02         29.1120     1.2990    -2.6080 c6         1 OF9       0.182000
     10 C04         27.9670     2.2760    -2.2410 c6         1 OF9      -0.127900
     11 C05         27.6870     2.2780    -0.7160 c6         1 OF9      -0.067900
     12 C06         27.4510     0.8350    -0.1840 c6         1 OF9      -0.141700
     13 C07         27.0770     0.8330     1.3180 c          1 OF9       0.611100
     14 C09         24.5810     1.1350     0.7710 c5         1 OF9       0.047000
     15 C14         25.3160     1.1110     3.1460 c5         1 OF9       0.021700
     16 C18         26.6090     5.6990     2.4350 c3         1 OF9      -0.046100
     17 C19         25.1250     5.8360     2.1040 ca         1 OF9      -0.079300
     18 C23         23.3130     5.8090     0.4650 ca         1 OF9      -0.104500
     19 C25         28.4480     4.4050     3.7150 c3         1 OF9       0.064300
     20 C27         28.7100     3.4560     4.9250 c          1 OF9       0.573100
     21 C29         29.1570     1.0410     5.5730 c3         1 OF9       0.056700
     22 C30         28.0530    -0.0160     5.6150 ca         1 OF9       0.337300
     23 C31         28.0700    -1.1100     4.7280 ca         1 OF9      -0.149000
     24 C32         27.0300    -2.0520     4.7740 ca         1 OF9      -0.076000
     25 C33         26.0090    -1.8610     5.7170 ca         1 OF9      -0.161000
     26 C34         26.0670    -0.7480     6.5730 ca         1 OF9       0.341900
     27 C39         28.6040    -0.1420    -0.5500 c6         1 OF9      -0.067900
     28 C40         28.8780    -0.1370    -2.0770 c6         1 OF9      -0.127900
     29 F03         29.2520     1.2570    -4.0060 f          1 OF9      -0.121000
     30 F11         22.1870     1.0380     1.2230 f          1 OF9      -0.101000
     31 F12         23.2900     2.8990     1.8490 f          1 OF9      -0.101000
     32 N08         25.7290     1.0260     1.7090 n          1 OF9      -0.428800
     33 N16         26.3150     3.3150     3.0590 ns         1 OF9      -0.478900
     34 N28         28.8920     2.1240     4.6070 ns         1 OF9      -0.497900
     35 N35         27.0680     0.1610     6.5290 nb         1 OF9      -0.658000
     36 O26         29.1150     3.9580     2.4990 oh         1 OF9      -0.661000
     37 O36         28.8120     3.8710     6.0720 o          1 OF9      -0.578100
     38 O37         25.2300     2.7890     5.0010 o          1 OF9      -0.583100
     39 O38         27.9500     0.7630     2.1700 o          1 OF9      -0.583100
     40 H1          23.2170     1.2300     3.8960 hc         1 OF9       0.095700
     41 H2          23.5890    -0.2370     2.9960 hc         1 OF9       0.095700
     42 H3          26.4710     4.8920     4.4200 h1         1 OF9       0.107700
     43 H4          24.5180     6.2690     4.1430 ha         1 OF9       0.107000
     44 H5          22.1080     6.4940     3.5900 ha         1 OF9       0.111500
     45 H6          21.3300     6.2040     1.2390 ha         1 OF9       0.113000
     46 H7          25.3850     5.4460    -0.0170 ha         1 OF9       0.107000
     47 H8          28.2170     3.2910    -2.5790 hc         1 OF9       0.069450
     48 H9          27.0550     1.9850    -2.7800 hc         1 OF9       0.069450
     49 H10         28.5370     2.7300    -0.1840 hc         1 OF9       0.064200
     50 H11         26.8190     2.9170    -0.5000 hc         1 OF9       0.064200
     51 H12         26.5590     0.4920    -0.7220 hc         1 OF9       0.059700
     52 H13         24.3930     0.1760     0.2690 h1         1 OF9       0.071700
     53 H14         24.7430     1.9030     0.0040 h1         1 OF9       0.071700
     54 H15         25.8120     0.3390     3.7460 h1         1 OF9       0.105700
     55 H16         27.1760     5.5050     1.5170 hc         1 OF9       0.055200
     56 H17         26.9850     6.6540     2.8240 hc         1 OF9       0.055200
     57 H18         22.9740     5.6820    -0.5600 ha         1 OF9       0.111500
     58 H19         28.8490     5.3840     4.0110 h1         1 OF9       0.061700
     59 H20         30.1010     0.5560     5.2960 h1         1 OF9       0.066700
     60 H21         29.2910     1.4610     6.5780 h1         1 OF9       0.066700
     61 H22         28.8760    -1.2150     4.0060 ha         1 OF9       0.130000
     62 H23         27.0150    -2.9030     4.0960 ha         1 OF9       0.109000
     63 H24         25.1820    -2.5610     5.7910 ha         1 OF9       0.120000
     64 H25         25.2880    -0.5770     7.3150 h4         1 OF9       0.017100
     65 H26         28.3540    -1.1610    -0.2200 hc         1 OF9       0.064200
     66 H27         29.5190     0.1420    -0.0100 hc         1 OF9       0.064200
     67 H28         28.0240    -0.5850    -2.6030 hc         1 OF9       0.069450
     68 H29         29.7480    -0.7680    -2.3040 hc         1 OF9       0.069450
     69 H30         26.5470     2.9530     2.1440 hn         1 OF9       0.320500
     70 H31         28.7660     1.8780     3.6250 hn         1 OF9       0.333500
     71 H32         30.0860     4.0280     2.6450 ho         1 OF9       0.450000
     72 F01         30.3300     1.7940    -2.1060 f          1 OF9      -0.121000
@<TRIPOS>BOND
     1     1     2 1   
     2     1    14 1   
     3     1    30 1   
     4     1    31 1   
     5     2    15 1   
     6     2    40 1   
     7     2    41 1   
     8     3    15 1   
     9     3    33 1   
    10     3    38 2   
    11     4    16 1   
    12     4    19 1   
    13     4    33 1   
    14     4    42 1   
    15     5     6 ar  
    16     5    17 ar  
    17     5    43 1   
    18     6     7 ar  
    19     6    44 1   
    20     7    18 ar  
    21     7    45 1   
    22     8    17 ar  
    23     8    18 ar  
    24     8    46 1   
    25     9    10 1   
    26     9    28 1   
    27     9    29 1   
    28     9    72 1   
    29    10    11 1   
    30    10    47 1   
    31    10    48 1   
    32    11    12 1   
    33    11    49 1   
    34    11    50 1   
    35    12    13 1   
    36    12    27 1   
    37    12    51 1   
    38    13    32 1   
    39    13    39 2   
    40    14    32 1   
    41    14    52 1   
    42    14    53 1   
    43    15    32 1   
    44    15    54 1   
    45    16    17 1   
    46    16    55 1   
    47    16    56 1   
    48    18    57 1   
    49    19    20 1   
    50    19    36 1   
    51    19    58 1   
    52    20    34 1   
    53    20    37 2   
    54    21    22 1   
    55    21    34 1   
    56    21    59 1   
    57    21    60 1   
    58    22    23 ar  
    59    22    35 ar  
    60    23    24 ar  
    61    23    61 1   
    62    24    25 ar  
    63    24    62 1   
    64    25    26 ar  
    65    25    63 1   
    66    26    35 ar  
    67    26    64 1   
    68    27    28 1   
    69    27    65 1   
    70    27    66 1   
    71    28    67 1   
    72    28    68 1   
    73    33    69 1   
    74    34    70 1   
    75    36    71 1   
@<TRIPOS>SUBSTRUCTURE
     1 OF9         1 TEMP              0 ****  ****    0 ROOT
