@<TRIPOS>MOLECULE
OF9
   72    75     1     0     0
SMALL
abcg2


@<TRIPOS>ATOM
      1 C10         23.4130     1.3880     1.3090 c5         1 OF9       0.171000
      2 C13         23.8260     0.5920     2.5200 c5         1 OF9      -0.135400
      3 C15         25.6240     2.1120     3.4610 c          1 OF9       0.600100
      4 C17         26.7940     4.2830     3.5720 c3         1 OF9       0.128700
      5 C20         24.2620     6.1480     3.0220 ca         1 OF9      -0.103500
      6 C21         22.9650     6.3570     2.5770 ca         1 OF9      -0.104500
      7 C22         22.6390     6.1280     1.2450 ca         1 OF9      -0.103000
      8 C24         24.9140     5.4730     0.8200 ca         1 OF9      -0.103500
      9 C02         29.0040     1.5250    -2.9380 c6         1 OF9       0.182000
     10 C04         27.9470     2.4930    -2.4600 c6         1 OF9      -0.127900
     11 C05         27.6360     2.2890    -0.9800 c6         1 OF9      -0.067900
     12 C06         27.2580     0.8270    -0.6930 c6         1 OF9      -0.141700
     13 C07         26.9610     0.6730     0.7850 c          1 OF9       0.611100
     14 C09         24.5650     1.2460     0.3240 c5         1 OF9       0.047000
     15 C14         25.3220     0.8840     2.5940 c5         1 OF9       0.021700
     16 C18         26.6580     5.4880     2.6370 c3         1 OF9      -0.046100
     17 C19         25.2540     5.7050     2.1490 ca         1 OF9      -0.079300
     18 C23         23.6180     5.6840     0.3680 ca         1 OF9      -0.104500
     19 C25         28.2460     4.1470     4.0550 c3         1 OF9       0.064300
     20 C27         28.3500     3.1890     5.2420 c          1 OF9       0.573100
     21 C29         29.3510     1.1370     6.0870 c3         1 OF9       0.056700
     22 C30         28.2120     0.1960     6.3940 ca         1 OF9       0.337300
     23 C31         27.5400    -0.4680     5.3720 ca         1 OF9      -0.149000
     24 C32         26.5280    -1.3520     5.7020 ca         1 OF9      -0.076000
     25 C33         26.2190    -1.5470     7.0420 ca         1 OF9      -0.161000
     26 C34         26.9480    -0.8440     7.9860 ca         1 OF9       0.341900
     27 C39         28.3790    -0.1080    -1.1420 c6         1 OF9      -0.067900
     28 C40         28.6770     0.0840    -2.6270 c6         1 OF9      -0.127900
     29 F03         29.1990     1.6810    -4.2850 f          1 OF9      -0.121000
     30 F11         22.2290     0.9990     0.7760 f          1 OF9      -0.101000
     31 F12         23.2520     2.7010     1.6540 f          1 OF9      -0.101000
     32 N08         25.7090     1.0050     1.1960 n          1 OF9      -0.428800
     33 N16         26.3570     3.0800     2.8980 ns         1 OF9      -0.478900
     34 N28         29.0670     2.0790     5.0320 ns         1 OF9      -0.497900
     35 N35         27.9210     0.0080     7.6760 nb         1 OF9      -0.658000
     36 O26         29.0440     3.7660     2.9640 oh         1 OF9      -0.661000
     37 O36         27.8280     3.4680     6.3120 o          1 OF9      -0.578100
     38 O37         25.2120     2.1380     4.6090 o          1 OF9      -0.583100
     39 O38         27.8150     0.3320     1.5870 o          1 OF9      -0.583100
     40 H1          23.2810     0.8630     3.4220 hc         1 OF9       0.095700
     41 H2          23.6720    -0.4700     2.3240 hc         1 OF9       0.095700
     42 H3          26.1570     4.4380     4.4440 h1         1 OF9       0.107700
     43 H4          24.5090     6.3390     4.0610 ha         1 OF9       0.107000
     44 H5          22.2080     6.7050     3.2680 ha         1 OF9       0.111500
     45 H6          21.6290     6.2960     0.8950 ha         1 OF9       0.113000
     46 H7          25.6740     5.1240     0.1290 ha         1 OF9       0.107000
     47 H8          28.2710     3.5200    -2.6450 hc         1 OF9       0.069450
     48 H9          27.0420     2.3270    -3.0490 hc         1 OF9       0.069450
     49 H10         28.4990     2.5670    -0.3680 hc         1 OF9       0.064200
     50 H11         26.8270     2.9670    -0.6990 hc         1 OF9       0.064200
     51 H12         26.3650     0.5870    -1.2800 hc         1 OF9       0.059700
     52 H13         24.3770     0.3960    -0.3350 h1         1 OF9       0.071700
     53 H14         24.6800     2.1410    -0.2900 h1         1 OF9       0.071700
     54 H15         25.8480     0.0510     3.0600 h1         1 OF9       0.105700
     55 H16         27.3320     5.3700     1.7840 hc         1 OF9       0.055200
     56 H17         27.0000     6.3710     3.1840 hc         1 OF9       0.055200
     57 H18         23.3740     5.4990    -0.6710 ha         1 OF9       0.111500
     58 H19         28.5450     5.1270     4.4500 h1         1 OF9       0.061700
     59 H20         30.2230     0.5580     5.7780 h1         1 OF9       0.066700
     60 H21         29.6260     1.6660     7.0000 h1         1 OF9       0.066700
     61 H22         27.8100    -0.2960     4.3380 ha         1 OF9       0.130000
     62 H23         25.9890    -1.8840     4.9280 ha         1 OF9       0.109000
     63 H24         25.4350    -2.2250     7.3480 ha         1 OF9       0.120000
     64 H25         26.7380    -0.9690     9.0430 h4         1 OF9       0.017100
     65 H26         28.0980    -1.1480    -0.9690 hc         1 OF9       0.064200
     66 H27         29.2790     0.0770    -0.5520 hc         1 OF9       0.064200
     67 H28         27.8020    -0.2020    -3.2180 hc         1 OF9       0.069450
     68 H29         29.5020    -0.5600    -2.9390 hc         1 OF9       0.069450
     69 H30         26.6180     2.9810     1.9310 hn         1 OF9       0.320500
     70 H31         29.4600     1.9310     4.1170 hn         1 OF9       0.333500
     71 H32         29.9180     4.1580     3.0570 ho         1 OF9       0.450000
     72 F01         30.2120     1.8520    -2.3670 f          1 OF9      -0.121000
@<TRIPOS>BOND
     1     1     2 1   
     2     1    14 1   
     3     1    30 1   
     4     1    31 1   
     5     2    15 1   
     6     2    40 1   
     7     2    41 1   
     8     3    15 1   
     9     3    33 1   
    10     3    38 2   
    11     4    16 1   
    12     4    19 1   
    13     4    33 1   
    14     4    42 1   
    15     5     6 ar  
    16     5    17 ar  
    17     5    43 1   
    18     6     7 ar  
    19     6    44 1   
    20     7    18 ar  
    21     7    45 1   
    22     8    17 ar  
    23     8    18 ar  
    24     8    46 1   
    25     9    10 1   
    26     9    28 1   
    27     9    29 1   
    28     9    72 1   
    29    10    11 1   
    30    10    47 1   
    31    10    48 1   
    32    11    12 1   
    33    11    49 1   
    34    11    50 1   
    35    12    13 1   
    36    12    27 1   
    37    12    51 1   
    38    13    32 1   
    39    13    39 2   
    40    14    32 1   
    41    14    52 1   
    42    14    53 1   
    43    15    32 1   
    44    15    54 1   
    45    16    17 1   
    46    16    55 1   
    47    16    56 1   
    48    18    57 1   
    49    19    20 1   
    50    19    36 1   
    51    19    58 1   
    52    20    34 1   
    53    20    37 2   
    54    21    22 1   
    55    21    34 1   
    56    21    59 1   
    57    21    60 1   
    58    22    23 ar  
    59    22    35 ar  
    60    23    24 ar  
    61    23    61 1   
    62    24    25 ar  
    63    24    62 1   
    64    25    26 ar  
    65    25    63 1   
    66    26    35 ar  
    67    26    64 1   
    68    27    28 1   
    69    27    65 1   
    70    27    66 1   
    71    28    67 1   
    72    28    68 1   
    73    33    69 1   
    74    34    70 1   
    75    36    71 1   
@<TRIPOS>SUBSTRUCTURE
     1 OF9         1 TEMP              0 ****  ****    0 ROOT
