@<TRIPOS>MOLECULE
OFD
   50    53     1     0     0
SMALL
No Charge or Current Charge


@<TRIPOS>ATOM
      1 O1           4.8240    -1.8230    -1.1540 o          1 OFD      -0.555000
      2 C1           6.6940    -0.7840     1.6030 cc         1 OFD       0.721800
      3 O2          -2.1590    -2.4030    -0.6320 o          1 OFD      -0.638100
      4 C2           5.6470     1.0600     0.8610 cd         1 OFD       0.157400
      5 C3           5.0610     0.3400    -0.1340 cc         1 OFD      -0.294600
      6 C4           5.3000    -1.0970    -0.2970 c          1 OFD       0.623600
      7 C5           4.2390     1.2150    -0.8970 cc         1 OFD      -0.055300
      8 C6           4.3460     2.4720    -0.3440 cd         1 OFD      -0.191000
      9 C7           3.3960     0.8200    -2.0860 c3         1 OFD       0.040200
     10 C8           2.0170     0.3000    -1.6890 ca         1 OFD      -0.071300
     11 C9           1.6460    -1.0300    -1.9520 ca         1 OFD      -0.124500
     12 C10          0.3740    -1.5010    -1.5850 ca         1 OFD      -0.067500
     13 C11         -0.5620    -0.6510    -0.9510 ca         1 OFD      -0.140600
     14 C12         -0.1780     0.6870    -0.6870 ca         1 OFD      -0.067500
     15 O3          -3.0630     2.7160    -0.4020 o          1 OFD      -0.713500
     16 C13          1.0960     1.1530    -1.0560 ca         1 OFD      -0.124500
     17 C14         -1.9250    -1.2000    -0.5670 c          1 OFD       0.613700
     18 C15         -4.2120    -0.4260     0.3130 ca         1 OFD      -0.020000
     19 C16         -4.7970     0.5830     1.1220 ca         1 OFD      -0.027300
     20 C17         -6.1380     0.4500     1.5370 ca         1 OFD      -0.118000
     21 C18         -6.9010    -0.6640     1.1570 ca         1 OFD      -0.101000
     22 C19         -6.3330    -1.6600     0.3460 ca         1 OFD      -0.047000
     23 C20         -4.9960    -1.5380    -0.0750 ca         1 OFD      -0.087000
     24 C21         -7.1170    -2.7970    -0.0570 cg         1 OFD       0.357000
     25 C22         -4.0080     1.8200     1.5670 c3         1 OFD      -0.188100
     26 C23         -3.9550     2.8390     0.4220 c          1 OFD       0.730000
     27 N1           6.1500    -1.5610     0.6450 ns         1 OFD      -0.455400
     28 N2           6.5120     0.5030     1.7920 nd         1 OFD      -0.714100
     29 N3           5.2230     2.3740     0.7490 na         1 OFD      -0.106000
     30 N5          -2.8590    -0.2780    -0.1140 ns         1 OFD      -0.169000
     31 N6          -7.7480    -3.7220    -0.3920 n1         1 OFD      -0.518000
     32 O4          -4.8770     3.6340     0.3140 o          1 OFD      -0.713500
     33 H1           3.8750     3.4050    -0.6330 h4         1 OFD       0.154000
     34 H2           3.2720     1.6930    -2.7380 hc         1 OFD       0.054200
     35 H3           3.9300     0.0850    -2.6990 hc         1 OFD       0.054200
     36 H4           2.3440    -1.7050    -2.4410 ha         1 OFD       0.114500
     37 H5           0.1170    -2.5370    -1.8010 ha         1 OFD       0.140000
     38 H6          -0.8460     1.3790    -0.1830 ha         1 OFD       0.140000
     39 H7           1.3690     2.1830    -0.8420 ha         1 OFD       0.114500
     40 H8          -6.5950     1.2170     2.1580 ha         1 OFD       0.113000
     41 H9          -7.9350    -0.7460     1.4880 ha         1 OFD       0.106000
     42 H10         -4.5850    -2.3070    -0.7220 ha         1 OFD       0.132000
     43 H11         -4.5350     2.2580     2.4230 hc         1 OFD       0.043700
     44 H12         -2.9960     1.4920     1.8300 hc         1 OFD       0.043700
     45 H13          6.3560    -2.5440     0.6250 hn         1 OFD       0.316500
     46 H14          5.5060     3.1280     1.3640 hn         1 OFD       0.356000
     47 H15          8.0290    -2.1810     2.0840 hn         1 OFD       0.490500
     48 H16          8.0440    -0.7540     3.0260 hn         1 OFD       0.490500
     49 H17         -2.5370     0.6820    -0.1150 hn         1 OFD       0.241000
     50 N4           7.5110    -1.3900     2.4450 nv         1 OFD      -1.045200
@<TRIPOS>BOND
     1     1     6 2   
     2     2    27 1   
     3     2    28 2   
     4     2    50 1   
     5     3    17 2   
     6     4     5 2   
     7     4    28 1   
     8     4    29 1   
     9     5     6 1   
    10     5     7 1   
    11     6    27 1   
    12     7     8 2   
    13     7     9 1   
    14     8    29 1   
    15     8    33 1   
    16     9    10 1   
    17     9    34 1   
    18     9    35 1   
    19    10    11 ar  
    20    10    16 ar  
    21    11    12 ar  
    22    11    36 1   
    23    12    13 ar  
    24    12    37 1   
    25    13    14 ar  
    26    13    17 1   
    27    14    16 ar  
    28    14    38 1   
    29    15    26 1   
    30    16    39 1   
    31    17    30 1   
    32    18    19 ar  
    33    18    23 ar  
    34    18    30 1   
    35    19    20 ar  
    36    19    25 1   
    37    20    21 ar  
    38    20    40 1   
    39    21    22 ar  
    40    21    41 1   
    41    22    23 ar  
    42    22    24 1   
    43    23    42 1   
    44    24    31 3   
    45    25    26 1   
    46    25    43 1   
    47    25    44 1   
    48    26    32 1   
    49    27    45 1   
    50    29    46 1   
    51    30    49 1   
    52    47    50 1   
    53    48    50 1   
@<TRIPOS>SUBSTRUCTURE
     1 OFD         1 TEMP              0 ****  ****    0 ROOT
