@<TRIPOS>MOLECULE
OFD
   50    53     1     0     0
SMALL
abcg2


@<TRIPOS>ATOM
      1 O1           5.0250    -1.9940    -1.0890 o          1 OFD      -0.555000
      2 C1           6.6650    -0.5750     1.7140 cc         1 OFD       0.721800
      3 O2          -2.2270    -2.2600    -0.5210 o          1 OFD      -0.638100
      4 C2           5.4960     1.0510     0.7470 cd         1 OFD       0.157400
      5 C3           4.9560     0.2430    -0.2560 cc         1 OFD      -0.294600
      6 C4           5.3440    -1.1250    -0.2860 c          1 OFD       0.623600
      7 C5           4.1350     1.0720    -1.0850 cc         1 OFD      -0.055300
      8 C6           4.2120     2.3250    -0.5520 cd         1 OFD      -0.191000
      9 C7           3.3040     0.6610    -2.2630 c3         1 OFD       0.040200
     10 C8           1.9230     0.2170    -1.8460 ca         1 OFD      -0.071300
     11 C9           1.6860    -1.0820    -1.4010 ca         1 OFD      -0.124500
     12 C10          0.4220    -1.4720    -0.9940 ca         1 OFD      -0.067500
     13 C11         -0.6410    -0.5710    -1.0050 ca         1 OFD      -0.140600
     14 C12         -0.4090     0.7280    -1.4540 ca         1 OFD      -0.067500
     15 O3          -2.9150     2.5380     0.1400 o          1 OFD      -0.713500
     16 C13          0.8560     1.1110    -1.8700 ca         1 OFD      -0.124500
     17 C14         -1.9810    -1.0630    -0.5660 c          1 OFD       0.613700
     18 C15         -4.1840    -0.3440     0.2030 ca         1 OFD      -0.020000
     19 C16         -4.6940     0.4240     1.2650 ca         1 OFD      -0.027300
     20 C17         -6.0240     0.2450     1.6380 ca         1 OFD      -0.118000
     21 C18         -6.8410    -0.6790     1.0140 ca         1 OFD      -0.101000
     22 C19         -6.3130    -1.4450    -0.0230 ca         1 OFD      -0.047000
     23 C20         -4.9930    -1.2770    -0.4330 ca         1 OFD      -0.087000
     24 C21         -7.1340    -2.4060    -0.6840 cg         1 OFD       0.357000
     25 C22         -3.8410     1.4030     2.0210 c3         1 OFD      -0.188100
     26 C23         -3.5200     2.6970     1.2330 c          1 OFD       0.730000
     27 N1           6.2070    -1.4450     0.7660 ns         1 OFD      -0.455400
     28 N2           6.3380     0.6880     1.7340 nd         1 OFD      -0.714100
     29 N3           5.0350     2.3010     0.5540 na         1 OFD      -0.106000
     30 N5          -2.8700    -0.1070    -0.2130 ns         1 OFD      -0.169000
     31 N6          -7.8020    -3.1790    -1.2180 n1         1 OFD      -0.518000
     32 O4          -3.8600     3.7750     1.7280 o          1 OFD      -0.713500
     33 H1           3.7430     3.2420    -0.8680 h4         1 OFD       0.154000
     34 H2           3.2170     1.4990    -2.9560 hc         1 OFD       0.054200
     35 H3           3.8010    -0.1460    -2.8040 hc         1 OFD       0.054200
     36 H4           2.5010    -1.7940    -1.3770 ha         1 OFD       0.114500
     37 H5           0.2600    -2.4890    -0.6610 ha         1 OFD       0.140000
     38 H6          -1.2080     1.4550    -1.5100 ha         1 OFD       0.140000
     39 H7           1.0120     2.1230    -2.2250 ha         1 OFD       0.114500
     40 H8          -6.4230     0.8330     2.4550 ha         1 OFD       0.113000
     41 H9          -7.8670    -0.8100     1.3280 ha         1 OFD       0.106000
     42 H10         -4.6140    -1.8590    -1.2600 ha         1 OFD       0.132000
     43 H11         -4.3370     1.6560     2.9570 hc         1 OFD       0.043700
     44 H12         -2.8910     0.9230     2.2800 hc         1 OFD       0.043700
     45 H13          6.5150    -2.4080     0.8040 hn         1 OFD       0.316500
     46 H14          5.2640     3.0980     1.1270 hn         1 OFD       0.356000
     47 H15          7.9130    -1.9720     2.5430 hn         1 OFD       0.490500
     48 H16          7.9380    -0.4290     3.2670 hn         1 OFD       0.490500
     49 H17         -2.6130     0.8970    -0.1470 hn         1 OFD       0.241000
     50 N4           7.4550    -1.0860     2.6770 nv         1 OFD      -1.045200
@<TRIPOS>BOND
     1     1     6 2   
     2     2    27 1   
     3     2    28 2   
     4     2    50 1   
     5     3    17 2   
     6     4     5 2   
     7     4    28 1   
     8     4    29 1   
     9     5     6 1   
    10     5     7 1   
    11     6    27 1   
    12     7     8 2   
    13     7     9 1   
    14     8    29 1   
    15     8    33 1   
    16     9    10 1   
    17     9    34 1   
    18     9    35 1   
    19    10    11 ar  
    20    10    16 ar  
    21    11    12 ar  
    22    11    36 1   
    23    12    13 ar  
    24    12    37 1   
    25    13    14 ar  
    26    13    17 1   
    27    14    16 ar  
    28    14    38 1   
    29    15    26 1   
    30    16    39 1   
    31    17    30 1   
    32    18    19 ar  
    33    18    23 ar  
    34    18    30 1   
    35    19    20 ar  
    36    19    25 1   
    37    20    21 ar  
    38    20    40 1   
    39    21    22 ar  
    40    21    41 1   
    41    22    23 ar  
    42    22    24 1   
    43    23    42 1   
    44    24    31 3   
    45    25    26 1   
    46    25    43 1   
    47    25    44 1   
    48    26    32 1   
    49    27    45 1   
    50    29    46 1   
    51    30    49 1   
    52    47    50 1   
    53    48    50 1   
@<TRIPOS>SUBSTRUCTURE
     1 OFD         1 TEMP              0 ****  ****    0 ROOT
