@<TRIPOS>MOLECULE
OFF
   51    52     1     0     0
SMALL
No Charge or Current Charge


@<TRIPOS>ATOM
      1 C19          1.0780     8.1990     3.3280 ca         1 OFF      -0.067000
      2 C20          0.7490     9.2650     4.1850 ca         1 OFF      -0.181500
      3 C21          0.0770    10.3890     3.6830 ca         1 OFF       0.110100
      4 O10         -0.2430    11.4230     4.5090 oh         1 OFF      -0.550100
      5 C22         -0.2670    10.4510     2.3260 ca         1 OFF      -0.181500
      6 C23          0.0610     9.3870     1.4660 ca         1 OFF      -0.067000
      7 C18          0.7360     8.2510     1.9590 ca         1 OFF      -0.047800
      8 C17          1.0700     7.1370     1.0230 ce         1 OFF      -0.177200
      9 C16          1.7140     5.9570     1.2750 cf         1 OFF      -0.165200
     10 C15          1.9910     4.9160     0.2500 c          1 OFF       0.615300
     11 O9           1.6850     5.0190    -0.9320 o          1 OFF      -0.536000
     12 O8           2.6680     3.8560     0.7930 os         1 OFF      -0.387100
     13 C12          2.9820     2.7210    -0.0380 c3         1 OFF       0.222300
     14 C13          4.1210     1.9420     0.6620 c3         1 OFF      -0.206400
     15 C14          5.4220     2.7370     0.5530 c          1 OFF       0.717000
     16 O6           5.7280     3.4860     1.4670 o          1 OFF      -0.758500
     17 O7           6.0950     2.5980    -0.4560 o          1 OFF      -0.758500
     18 C10          1.6880     1.8860    -0.2810 c3         1 OFF      -0.007700
     19 C11          1.1310     1.2810     1.0490 c          1 OFF       0.727000
     20 O4           0.4080     1.9850     1.7410 o          1 OFF      -0.724500
     21 O5           1.3240     0.0950     1.2950 o          1 OFF      -0.724500
     22 O3           2.0080     0.8750    -1.2840 os         1 OFF      -0.409100
     23 C9           0.9820     0.1620    -1.8520 c          1 OFF       0.595300
     24 O2          -0.2070     0.3640    -1.6440 o          1 OFF      -0.502000
     25 C8           1.5050    -0.8540    -2.8080 ce         1 OFF      -0.190200
     26 C7           0.7310    -1.7010    -3.5530 cf         1 OFF      -0.169200
     27 C4           1.1370    -2.7380    -4.5230 ca         1 OFF      -0.057800
     28 C5           2.4950    -2.9920    -4.8160 ca         1 OFF      -0.065500
     29 C6           2.8490    -3.9870    -5.7450 ca         1 OFF      -0.181500
     30 C1           1.8530    -4.7350    -6.3900 ca         1 OFF       0.115100
     31 O1           2.1920    -5.6980    -7.2900 oh         1 OFF      -0.548100
     32 C2           0.5030    -4.4900    -6.1070 ca         1 OFF      -0.181500
     33 C3           0.1450    -3.4970    -5.1780 ca         1 OFF      -0.065500
     34 H19          1.5980     7.3380     3.7380 ha         1 OFF       0.122000
     35 H20          1.0200     9.2090     5.2360 ha         1 OFF       0.106000
     36 HO10         0.0730    11.2060     5.4120 ho         1 OFF       0.454000
     37 H22         -0.7870    11.3220     1.9350 ha         1 OFF       0.106000
     38 H23         -0.2120     9.4480     0.4150 ha         1 OFF       0.122000
     39 H171         0.7440     7.3150    -0.0050 ha         1 OFF       0.185000
     40 H161         2.0620     5.7230     2.2780 ha         1 OFF       0.200000
     41 H12          3.3570     3.0570    -1.0150 h1         1 OFF       0.058700
     42 H131         3.8300     1.8090     1.7110 hc         1 OFF       0.052200
     43 H132         4.2230     1.0020     0.1080 hc         1 OFF       0.052200
     44 H10          0.9150     2.5540    -0.6770 h1         1 OFF       0.052700
     45 H81          2.5880    -0.8890    -2.8870 ha         1 OFF       0.192000
     46 H71         -0.3510    -1.6130    -3.4250 ha         1 OFF       0.190000
     47 H5           3.2840    -2.4260    -4.3290 ha         1 OFF       0.121000
     48 H6           3.9000    -4.1700    -5.9580 ha         1 OFF       0.108500
     49 HO1          3.1700    -5.7270    -7.3590 ho         1 OFF       0.456000
     50 H2          -0.2710    -5.0690    -6.6060 ha         1 OFF       0.108500
     51 H3          -0.9080    -3.3190    -4.9690 ha         1 OFF       0.121000
@<TRIPOS>BOND
     1     1     2 ar  
     2     1     7 ar  
     3     1    34 1   
     4     2     3 ar  
     5     2    35 1   
     6     3     4 1   
     7     3     5 ar  
     8     4    36 1   
     9     5     6 ar  
    10     5    37 1   
    11     6     7 ar  
    12     6    38 1   
    13     7     8 1   
    14     8     9 2   
    15     8    39 1   
    16     9    10 1   
    17     9    40 1   
    18    10    11 2   
    19    10    12 1   
    20    12    13 1   
    21    13    14 1   
    22    13    18 1   
    23    13    41 1   
    24    14    15 1   
    25    14    42 1   
    26    14    43 1   
    27    15    16 1   
    28    15    17 1   
    29    18    19 1   
    30    18    22 1   
    31    18    44 1   
    32    19    20 1   
    33    19    21 1   
    34    22    23 1   
    35    23    24 2   
    36    23    25 1   
    37    25    26 2   
    38    25    45 1   
    39    26    27 1   
    40    26    46 1   
    41    27    28 ar  
    42    27    33 ar  
    43    28    29 ar  
    44    28    47 1   
    45    29    30 ar  
    46    29    48 1   
    47    30    31 1   
    48    30    32 ar  
    49    31    49 1   
    50    32    33 ar  
    51    32    50 1   
    52    33    51 1   
@<TRIPOS>SUBSTRUCTURE
     1 OFF         1 TEMP              0 ****  ****    0 ROOT
