@<TRIPOS>MOLECULE
OFF
   51    52     1     0     0
SMALL
bcc


@<TRIPOS>ATOM
      1 C19          1.0440     7.8760     3.4860 ca         1 OFF      -0.085000
      2 C20          0.6850     8.7930     4.4530 ca         1 OFF      -0.199500
      3 C21          0.0870    10.0010     4.0870 ca         1 OFF       0.110100
      4 O10         -0.2860    10.9250     4.9850 oh         1 OFF      -0.511100
      5 C22         -0.1410    10.2710     2.7390 ca         1 OFF      -0.199500
      6 C23          0.2250     9.3430     1.7820 ca         1 OFF      -0.085000
      7 C18          0.8230     8.1270     2.1280 ca         1 OFF      -0.047800
      8 C17          1.1770     7.1920     1.0720 ce         1 OFF      -0.127200
      9 C16          1.7500     5.9910     1.2190 cf         1 OFF      -0.115200
     10 C15          2.0350     5.1440     0.0530 c          1 OFF       0.664300
     11 O9           1.7690     5.4250    -1.0960 o          1 OFF      -0.585000
     12 O8           2.6430     4.0270     0.4230 os         1 OFF      -0.363900
     13 C12          2.9300     3.0060    -0.5400 c3         1 OFF       0.199100
     14 C13          3.9910     2.1380     0.1010 c3         1 OFF      -0.206400
     15 C14          5.3070     2.8970     0.3620 c          1 OFF       0.927600
     16 O6           5.9490     2.5640     1.3780 o          1 OFF      -0.863800
     17 O7           5.6440     3.7520    -0.4810 o          1 OFF      -0.863800
     18 C10          1.6200     2.2810    -0.8960 c3         1 OFF      -0.030900
     19 C11          0.8380     1.8240     0.3560 c          1 OFF       0.937600
     20 O4           0.1040     2.6950     0.8560 o          1 OFF      -0.829800
     21 O5           1.0330     0.6630     0.7540 o          1 OFF      -0.829800
     22 O3           2.0200     1.1830    -1.7130 os         1 OFF      -0.385900
     23 C9           1.0620     0.4560    -2.2750 c          1 OFF       0.644300
     24 O2          -0.1130     0.7470    -2.2340 o          1 OFF      -0.551000
     25 C8           1.6240    -0.7140    -2.9630 ce         1 OFF      -0.140200
     26 C7           0.8270    -1.5520    -3.6400 cf         1 OFF      -0.119200
     27 C4           1.2220    -2.7500    -4.3630 ca         1 OFF      -0.057800
     28 C5           2.5410    -3.2090    -4.4330 ca         1 OFF      -0.083500
     29 C6           2.8650    -4.3540    -5.1320 ca         1 OFF      -0.199500
     30 C1           1.8690    -5.0810    -5.7880 ca         1 OFF       0.115100
     31 O1           2.1290    -6.2000    -6.4810 oh         1 OFF      -0.509100
     32 C2           0.5480    -4.6410    -5.7290 ca         1 OFF      -0.199500
     33 C3           0.2390    -3.4930    -5.0250 ca         1 OFF      -0.083500
     34 H19          1.5030     6.9480     3.8040 ha         1 OFF       0.140000
     35 H20          0.8670     8.5700     5.4980 ha         1 OFF       0.124000
     36 HO10        -0.0810    10.6320     5.8810 ho         1 OFF       0.415000
     37 H22         -0.6040    11.2060     2.4460 ha         1 OFF       0.124000
     38 H23          0.0410     9.5670     0.7390 ha         1 OFF       0.140000
     39 H171         0.9380     7.5230     0.0660 ha         1 OFF       0.135000
     40 H161         2.0160     5.5980     2.1930 ha         1 OFF       0.150000
     41 H12          3.3390     3.4640    -1.4440 h1         1 OFF       0.058700
     42 H131         3.6160     1.6910     1.0240 hc         1 OFF       0.052200
     43 H132         4.2190     1.3060    -0.5700 hc         1 OFF       0.052200
     44 H10          0.9930     2.9560    -1.4850 h1         1 OFF       0.052700
     45 H81          2.6940    -0.8640    -2.8950 ha         1 OFF       0.142000
     46 H71         -0.2360    -1.3300    -3.6640 ha         1 OFF       0.140000
     47 H5           3.3370    -2.6700    -3.9340 ha         1 OFF       0.139000
     48 H6           3.8960    -4.6870    -5.1690 ha         1 OFF       0.126500
     49 HO1          3.0680    -6.4130    -6.4460 ho         1 OFF       0.417000
     50 H2          -0.2290    -5.2010    -6.2340 ha         1 OFF       0.126500
     51 H3          -0.7920    -3.1630    -4.9870 ha         1 OFF       0.139000
@<TRIPOS>BOND
     1     1     2 ar  
     2     1     7 ar  
     3     1    34 1   
     4     2     3 ar  
     5     2    35 1   
     6     3     4 1   
     7     3     5 ar  
     8     4    36 1   
     9     5     6 ar  
    10     5    37 1   
    11     6     7 ar  
    12     6    38 1   
    13     7     8 1   
    14     8     9 2   
    15     8    39 1   
    16     9    10 1   
    17     9    40 1   
    18    10    11 2   
    19    10    12 1   
    20    12    13 1   
    21    13    14 1   
    22    13    18 1   
    23    13    41 1   
    24    14    15 1   
    25    14    42 1   
    26    14    43 1   
    27    15    16 1   
    28    15    17 1   
    29    18    19 1   
    30    18    22 1   
    31    18    44 1   
    32    19    20 1   
    33    19    21 1   
    34    22    23 1   
    35    23    24 2   
    36    23    25 1   
    37    25    26 2   
    38    25    45 1   
    39    26    27 1   
    40    26    46 1   
    41    27    28 ar  
    42    27    33 ar  
    43    28    29 ar  
    44    28    47 1   
    45    29    30 ar  
    46    29    48 1   
    47    30    31 1   
    48    30    32 ar  
    49    31    49 1   
    50    32    33 ar  
    51    32    50 1   
    52    33    51 1   
@<TRIPOS>SUBSTRUCTURE
     1 OFF         1 TEMP              0 ****  ****    0 ROOT
