@<TRIPOS>MOLECULE
OFG
   46    49     1     0     0
SMALL
No Charge or Current Charge


@<TRIPOS>ATOM
      1 C13         34.2830    47.1120     8.8020 ca         1 OFG      -0.073000
      2 C14         34.3180    47.1430    10.2060 ca         1 OFG      -0.135000
      3 C6          29.7890    45.8530     8.4690 ca         1 OFG      -0.119000
      4 C16         32.9270    45.1500    10.2810 ca         1 OFG      -0.120000
      5 C26         33.0760    46.5770     4.7790 cc         1 OFG       0.203900
      6 C27         34.0930    45.6180     4.7840 cc         1 OFG       0.203900
      7 C4          27.6700    46.2300     9.5810 ca         1 OFG       0.354900
      8 C19         29.6840    48.6230     7.3960 cc         1 OFG      -0.150000
      9 C5          28.6840    46.7040     8.7060 ca         1 OFG      -0.050000
     10 C18         28.6320    48.0430     8.0600 cd         1 OFG      -0.151000
     11 C10         32.8710    45.1110     8.8680 ca         1 OFG      -0.072300
     12 C12         33.5680    46.1010     8.1260 ca         1 OFG       0.006800
     13 C1          29.8320    44.5910     9.1010 ca         1 OFG       0.024100
     14 C15         33.6420    46.1600    10.9390 ca         1 OFG       0.179000
     15 C22         27.5340    48.9480     7.9080 cd         1 OFG       0.273300
     16 C2          28.7470    44.2490     9.9480 ca         1 OFG       0.570900
     17 C23         26.1070    48.7930     8.3640 c3         1 OFG      -0.123400
     18 C11         32.8770    42.6950     8.0700 c3         1 OFG      -0.085100
     19 C9          32.0690    44.0010     8.1660 c3         1 OFG       0.227600
     20 N3          27.6950    45.0210    10.1920 nb         1 OFG      -0.720000
     21 N25         32.7200    46.9090     5.9970 nd         1 OFG      -0.493300
     22 N28         34.4380    45.2890     6.0060 nd         1 OFG      -0.493300
     23 N20         29.1880    49.8330     6.9300 na         1 OFG      -0.014200
     24 N21         27.8590    50.0380     7.2370 nc         1 OFG      -0.529800
     25 N24         33.5740    46.0980     6.7300 na         1 OFG       0.316800
     26 N8          28.6380    43.0840    10.6110 nv         1 OFG      -1.045900
     27 O7          30.8770    43.6900     8.9180 os         1 OFG      -0.364100
     28 F17         33.6800    46.1850    12.2890 f          1 OFG      -0.171000
     29 H13         34.8150    47.8720     8.2330 ha         1 OFG       0.138000
     30 H14         34.8700    47.9230    10.7240 ha         1 OFG       0.143000
     31 H6          30.5810    46.1630     7.7980 ha         1 OFG       0.120000
     32 H16         32.4120    44.3980    10.8740 ha         1 OFG       0.155000
     33 H26         32.5930    47.0360     3.9280 h4         1 OFG       0.056100
     34 H27         34.5850    45.1580     3.9390 h4         1 OFG       0.056100
     35 H4          26.8120    46.8410     9.8400 h4         1 OFG       0.023100
     36 H20         29.7170    50.5270     6.4000 hn         1 OFG       0.373000
     37 H9          31.7930    44.3070     7.1490 h1         1 OFG       0.063700
     38 H231        25.4530    49.5410     7.9000 hc         1 OFG       0.049700
     39 H232        25.7110    47.8080     8.0920 hc         1 OFG       0.049700
     40 H233        26.0260    48.9190     9.4500 hc         1 OFG       0.049700
     41 H81N        27.7090    42.8530    10.9420 hn         1 OFG       0.471500
     42 H82N        29.2210    42.3180    10.2920 hn         1 OFG       0.471500
     43 H111        32.2920    41.9180     7.5640 hc         1 OFG       0.054700
     44 H112        33.7980    42.8550     7.4990 hc         1 OFG       0.054700
     45 H113        33.1500    42.3320     9.0670 hc         1 OFG       0.054700
     46 H19         30.7070    48.3080     7.2300 h4         1 OFG       0.167000
@<TRIPOS>BOND
     1     1     2 ar  
     2     1    12 ar  
     3     1    29 1   
     4     2    14 ar  
     5     2    30 1   
     6     3     9 ar  
     7     3    13 ar  
     8     3    31 1   
     9     4    11 ar  
    10     4    14 ar  
    11     4    32 1   
    12     5     6 1   
    13     5    21 2   
    14     5    33 1   
    15     6    22 2   
    16     6    34 1   
    17     7     9 ar  
    18     7    20 ar  
    19     7    35 1   
    20     8    10 2   
    21     8    23 1   
    22     8    46 1   
    23     9    10 1   
    24    10    15 1   
    25    11    12 ar  
    26    11    19 1   
    27    12    25 1   
    28    13    16 ar  
    29    13    27 1   
    30    14    28 1   
    31    15    17 1   
    32    15    24 2   
    33    16    20 ar  
    34    16    26 1   
    35    17    38 1   
    36    17    39 1   
    37    17    40 1   
    38    18    19 1   
    39    18    43 1   
    40    18    44 1   
    41    18    45 1   
    42    19    27 1   
    43    19    37 1   
    44    21    25 1   
    45    22    25 1   
    46    23    24 1   
    47    23    36 1   
    48    26    41 1   
    49    26    42 1   
@<TRIPOS>SUBSTRUCTURE
     1 OFG         1 TEMP              0 ****  ****    0 ROOT
