@<TRIPOS>MOLECULE
OFG
   46    49     1     0     0
SMALL
abcg2


@<TRIPOS>ATOM
      1 C13         34.1030    47.0870     8.9160 ca         1 OFG      -0.073000
      2 C14         34.2070    47.0330    10.2960 ca         1 OFG      -0.135000
      3 C6          29.8290    45.7820     8.4090 ca         1 OFG      -0.119000
      4 C16         32.9530    44.9580    10.2780 ca         1 OFG      -0.120000
      5 C26         33.0520    47.1250     4.9320 cc         1 OFG       0.203900
      6 C27         33.4450    45.7910     4.7580 cc         1 OFG       0.203900
      7 C4          27.8950    46.3600     9.6680 ca         1 OFG       0.354900
      8 C19         29.8270    48.6350     7.3690 cc         1 OFG      -0.150000
      9 C5          28.8050    46.7110     8.6800 ca         1 OFG      -0.050000
     10 C18         28.7510    47.9830     7.9560 cd         1 OFG      -0.151000
     11 C10         32.8270    45.0150     8.8910 ca         1 OFG      -0.072300
     12 C12         33.4220    46.0880     8.2230 ca         1 OFG       0.006800
     13 C1          29.8990    44.6050     9.1150 ca         1 OFG       0.024100
     14 C15         33.6280    45.9580    10.9460 ca         1 OFG       0.179000
     15 C22         27.6310    48.8160     7.6610 cd         1 OFG       0.273300
     16 C2          28.9150    44.3390    10.1000 ca         1 OFG       0.570900
     17 C23         26.1930    48.6220     8.0100 c3         1 OFG      -0.123400
     18 C11         32.7930    42.6260     8.0780 c3         1 OFG      -0.085100
     19 C9          32.0260    43.9310     8.1930 c3         1 OFG       0.227600
     20 N3          27.9400    45.2050    10.3500 nb         1 OFG      -0.720000
     21 N25         32.9840    47.3770     6.2370 nd         1 OFG      -0.493300
     22 N28         33.6170    45.2420     5.9570 nd         1 OFG      -0.493300
     23 N20         29.3400    49.7490     6.7920 na         1 OFG      -0.014200
     24 N21         28.0080    49.8800     6.9520 nc         1 OFG      -0.529800
     25 N24         33.3240    46.2220     6.8100 na         1 OFG       0.316800
     26 N8          28.9910    43.1890    10.8500 nv         1 OFG      -1.045900
     27 O7          30.8410    43.6300     8.9550 os         1 OFG      -0.364100
     28 F17         33.7210    45.8870    12.2950 f          1 OFG      -0.171000
     29 H13         34.5470    47.9030     8.3650 ha         1 OFG       0.138000
     30 H14         34.7290    47.7980    10.8540 ha         1 OFG       0.143000
     31 H6          30.5480    46.0010     7.6340 ha         1 OFG       0.120000
     32 H16         32.4930    44.1530    10.8360 ha         1 OFG       0.155000
     33 H26         32.8190    47.8820     4.2030 h4         1 OFG       0.056100
     34 H27         33.6080    45.2270     3.8550 h4         1 OFG       0.056100
     35 H4          27.0970    47.0350     9.9470 h4         1 OFG       0.023100
     36 H20         29.8560    50.4490     6.2820 hn         1 OFG       0.373000
     37 H9          31.7290    44.2640     7.2000 h1         1 OFG       0.063700
     38 H231        25.5730    49.2910     7.4140 hc         1 OFG       0.049700
     39 H232        25.8780    47.5930     7.8230 hc         1 OFG       0.049700
     40 H233        26.0010    48.8330     9.0650 hc         1 OFG       0.049700
     41 H81N        28.1370    42.9210    11.3150 hn         1 OFG       0.471500
     42 H82N        29.5120    42.4250    10.4490 hn         1 OFG       0.471500
     43 H111        32.1810    41.8780     7.5730 hc         1 OFG       0.054700
     44 H112        33.7030    42.7860     7.5010 hc         1 OFG       0.054700
     45 H113        33.0640    42.2570     9.0690 hc         1 OFG       0.054700
     46 H19         30.8750    48.3840     7.3220 h4         1 OFG       0.167000
@<TRIPOS>BOND
     1     1     2 ar  
     2     1    12 ar  
     3     1    29 1   
     4     2    14 ar  
     5     2    30 1   
     6     3     9 ar  
     7     3    13 ar  
     8     3    31 1   
     9     4    11 ar  
    10     4    14 ar  
    11     4    32 1   
    12     5     6 1   
    13     5    21 2   
    14     5    33 1   
    15     6    22 2   
    16     6    34 1   
    17     7     9 ar  
    18     7    20 ar  
    19     7    35 1   
    20     8    10 2   
    21     8    23 1   
    22     8    46 1   
    23     9    10 1   
    24    10    15 1   
    25    11    12 ar  
    26    11    19 1   
    27    12    25 1   
    28    13    16 ar  
    29    13    27 1   
    30    14    28 1   
    31    15    17 1   
    32    15    24 2   
    33    16    20 ar  
    34    16    26 1   
    35    17    38 1   
    36    17    39 1   
    37    17    40 1   
    38    18    19 1   
    39    18    43 1   
    40    18    44 1   
    41    18    45 1   
    42    19    27 1   
    43    19    37 1   
    44    21    25 1   
    45    22    25 1   
    46    23    24 1   
    47    23    36 1   
    48    26    41 1   
    49    26    42 1   
@<TRIPOS>SUBSTRUCTURE
     1 OFG         1 TEMP              0 ****  ****    0 ROOT
