@<TRIPOS>MOLECULE
OFH
   63    66     1     0     0
SMALL
No Charge or Current Charge


@<TRIPOS>ATOM
      1 C1           0.0000     0.0000     0.0000 cx         1 OFH      -0.304000
      2 S2           0.0000     0.0000     0.0000 sy         1 OFH       1.081500
      3 N3           0.0000     0.0000     0.0000 n          1 OFH      -0.389800
      4 C4           0.0000     0.0000     0.0000 c          1 OFH       0.644100
      5 C5           0.0000     0.0000     0.0000 c5         1 OFH      -0.314700
      6 C6           0.0000     0.0010     0.0000 ca         1 OFH      -0.306500
      7 C7           0.0000     0.0000     0.0000 c5         1 OFH       0.036700
      8 C8           0.0000     0.0000     0.0000 c3         1 OFH       0.345000
      9 C9           0.0000     0.0000     0.0000 c5         1 OFH       0.147000
     10 C10          0.0000     0.0000     0.0000 c5         1 OFH      -0.057400
     11 C11          0.0000     0.0000     0.0000 cx         1 OFH      -0.088400
     12 C12          0.0000     0.0000     0.0000 cx         1 OFH      -0.088400
     13 C13          0.0000     0.0000     0.0000 c          1 OFH       0.604100
     14 C14          0.0000     0.0000     0.0000 cx         1 OFH      -0.012900
     15 C15          0.0000     0.0000     0.0000 c3         1 OFH       0.310000
     16 C16          0.0000     0.0000     0.0000 ca         1 OFH       0.239000
     17 N17          0.0000     0.0000     0.0000 ns         1 OFH      -0.455900
     18 C18          0.0000     0.0000     0.0000 c2         1 OFH       0.428200
     19 N19          0.0000     0.0000     0.0000 n2         1 OFH      -0.712100
     20 C20          0.0000     0.0000     0.0000 ca         1 OFH       0.030000
     21 C21          0.0000     0.0000     0.0000 ca         1 OFH      -0.157000
     22 O23          0.0000     0.0000     0.0000 o          1 OFH      -0.517500
     23 C24          0.0000     0.0000     0.0000 cx         1 OFH      -0.111400
     24 C25          0.0000     0.0000     0.0000 cx         1 OFH      -0.111400
     25 C26          0.0000     0.0000     0.0000 c3         1 OFH       0.106300
     26 O27          0.0000     0.0000     0.0000 o          1 OFH      -0.552100
     27 C29          0.0000     0.0000     0.0000 ca         1 OFH       0.213100
     28 O30          0.0000     0.0000     0.0000 o          1 OFH      -0.578100
     29 F31          0.0000     0.0000     0.0000 f          1 OFH      -0.107667
     30 F32          0.0000     0.0000     0.0000 f          1 OFH      -0.107667
     31 F33          0.0000     0.0000     0.0000 f          1 OFH      -0.107667
     32 F35          0.0000     0.0000     0.0000 f          1 OFH      -0.104000
     33 F36          0.0000     0.0000     0.0000 f          1 OFH      -0.104000
     34 Cl           0.0000     0.0000     0.0000 cl         1 OFH      -0.149000
     35 C38          0.0000     0.0000     0.0000 ca         1 OFH      -0.224000
     36 C39          0.0000     0.0000     0.0000 c3         1 OFH      -0.125100
     37 H5           0.0000     0.0000     0.0000 h1         1 OFH       0.135700
     38 H7           0.0000     0.0000     0.0000 h1         1 OFH       0.083700
     39 H9           0.0000     0.0000     0.0000 h1         1 OFH       0.062200
     40 H9A          0.0000     0.0000     0.0000 h1         1 OFH       0.062200
     41 H10          0.0000     0.0000     0.0000 hc         1 OFH       0.075700
     42 H10A         0.0000     0.0000     0.0000 hc         1 OFH       0.075700
     43 H11          0.0000     0.0000     0.0000 hc         1 OFH       0.090200
     44 H11A         0.0000     0.0000     0.0000 hc         1 OFH       0.090200
     45 H12          0.0000     0.0000     0.0000 hc         1 OFH       0.090200
     46 H12A         0.0000     0.0000     0.0000 hc         1 OFH       0.090200
     47 HN17         0.0000     0.0000     0.0000 hn         1 OFH       0.322500
     48 H18          0.0000     0.0000     0.0000 h4         1 OFH      -0.038200
     49 HN19         0.0000     0.0000     0.0000 hn         1 OFH       0.378400
     50 H20          0.0000     0.0000     0.0000 ha         1 OFH       0.147000
     51 H21          0.0000     0.0000     0.0000 ha         1 OFH       0.155000
     52 H24          0.0000     0.0000     0.0000 hc         1 OFH       0.081200
     53 H24A         0.0000     0.0000     0.0000 hc         1 OFH       0.081200
     54 H25          0.0000     0.0000     0.0000 hc         1 OFH       0.081200
     55 H25A         0.0000     0.0000     0.0000 hc         1 OFH       0.081200
     56 H26          0.0000     0.0000     0.0000 h1         1 OFH       0.079700
     57 H38          0.0000     0.0000     0.0000 ha         1 OFH       0.129000
     58 H39          0.0000     0.0000     0.0000 hc         1 OFH       0.065033
     59 H39A         0.0000     0.0000     0.0000 hc         1 OFH       0.065033
     60 H39B         0.0000     0.0000     0.0000 hc         1 OFH       0.065033
     61 O22          0.0000     0.0000     0.0000 o          1 OFH      -0.517500
     62 O28          0.0000     0.0000     0.0000 os         1 OFH      -0.328100
     63 F34          0.0000     0.0000     0.0000 f          1 OFH      -0.104000
@<TRIPOS>BOND
     1     1     4 1   
     2     1     8 1   
     3     1    11 1   
     4     1    12 1   
     5     2     5 1   
     6     2     6 1   
     7     2    22 2   
     8     2    61 2   
     9     3     4 1   
    10     3     7 1   
    11     3     9 1   
    12     4    26 2   
    13     5     9 1   
    14     5    10 1   
    15     5    37 1   
    16     6    16 ar  
    17     6    20 ar  
    18     7    10 1   
    19     7    13 1   
    20     7    38 1   
    21     8    29 1   
    22     8    30 1   
    23     8    31 1   
    24     9    39 1   
    25     9    40 1   
    26    10    41 1   
    27    10    42 1   
    28    11    12 1   
    29    11    43 1   
    30    11    44 1   
    31    12    45 1   
    32    12    46 1   
    33    13    17 1   
    34    13    28 2   
    35    14    17 1   
    36    14    18 1   
    37    14    23 1   
    38    14    24 1   
    39    15    25 1   
    40    15    32 1   
    41    15    33 1   
    42    15    63 1   
    43    16    21 ar  
    44    16    34 1   
    45    17    47 1   
    46    18    19 2   
    47    18    48 1   
    48    19    49 1   
    49    20    35 ar  
    50    20    50 1   
    51    21    27 ar  
    52    21    51 1   
    53    23    24 1   
    54    23    52 1   
    55    23    53 1   
    56    24    54 1   
    57    24    55 1   
    58    25    36 1   
    59    25    56 1   
    60    25    62 1   
    61    27    35 ar  
    62    27    62 1   
    63    35    57 1   
    64    36    58 1   
    65    36    59 1   
    66    36    60 1   
@<TRIPOS>SUBSTRUCTURE
     1 OFH         1 TEMP              0 ****  ****    0 ROOT
