@<TRIPOS>MOLECULE
OFH
   63    66     1     0     0
SMALL
abcg2


@<TRIPOS>ATOM
      1 C1          -1.8080    -3.1490     0.9360 cx         1 OFH      -0.304000
      2 S2          -0.0210     2.2050     1.8080 sy         1 OFH       1.081500
      3 N3          -2.4740    -0.8220     1.3020 n          1 OFH      -0.389800
      4 C4          -2.8740    -2.0820     1.0540 c          1 OFH       0.644100
      5 C5          -1.2950     1.1640     1.0920 c5         1 OFH      -0.314700
      6 C6           1.4600     1.7000     0.9690 ca         1 OFH      -0.306500
      7 C7          -3.4700     0.2330     1.3120 c5         1 OFH       0.036700
      8 C8          -1.4570    -3.4530    -0.4870 c3         1 OFH       0.345000
      9 C9          -1.1110    -0.3190     1.3900 c5         1 OFH       0.147000
     10 C10         -2.6640     1.4840     1.6820 c5         1 OFH      -0.057400
     11 C11         -0.7740    -3.3440     2.0070 cx         1 OFH      -0.088400
     12 C12         -1.8980    -4.3130     1.8790 cx         1 OFH      -0.088400
     13 C13         -4.0690     0.4050    -0.0840 c          1 OFH       0.604100
     14 C14         -6.0050     1.1850    -1.3060 cx         1 OFH      -0.012900
     15 C15          7.2270     0.1830    -1.0950 c3         1 OFH       0.310000
     16 C16          1.7110     1.9750    -0.3790 ca         1 OFH       0.239000
     17 N17         -5.3220     0.8910    -0.0970 ns         1 OFH      -0.455900
     18 C18         -6.5920     0.0400    -2.0340 c2         1 OFH       0.428200
     19 N19         -6.5520    -1.1380    -1.5830 n2         1 OFH      -0.712100
     20 C20          2.4190     1.0100     1.6960 ca         1 OFH       0.030000
     21 C21          2.8820     1.5600    -0.9730 ca         1 OFH      -0.157000
     22 O23          0.1320     1.8320     3.2120 o          1 OFH      -0.517500
     23 C24         -6.7720     2.4850    -1.3600 cx         1 OFH      -0.111400
     24 C25         -5.5120     2.3430    -2.1330 cx         1 OFH      -0.111400
     25 C26          5.9980    -0.1680    -0.2670 c3         1 OFH       0.106300
     26 O27         -4.0510    -2.3620     0.9270 o          1 OFH      -0.552100
     27 C29          3.8390     0.8680    -0.2280 ca         1 OFH       0.213100
     28 O30         -3.3980     0.2200    -1.0800 o          1 OFH      -0.578100
     29 F31         -1.0110    -2.3700    -1.1440 f          1 OFH      -0.107667
     30 F32         -0.5050    -4.3880    -0.5950 f          1 OFH      -0.107667
     31 F33         -2.5170    -3.9010    -1.1760 f          1 OFH      -0.107667
     32 F35          8.3190    -0.3710    -0.5600 f          1 OFH      -0.104000
     33 F36          7.1290    -0.2540    -2.3530 f          1 OFH      -0.104000
     34 CL           0.5750     2.8210    -1.3610 cl         1 OFH      -0.149000
     35 C38          3.6030     0.5920     1.1160 ca         1 OFH      -0.224000
     36 C39          5.7450    -1.6640    -0.2110 c3         1 OFH      -0.125100
     37 H5          -1.2880     1.3460     0.0170 h1         1 OFH       0.135700
     38 H7          -4.2420     0.0380     2.0590 h1         1 OFH       0.083700
     39 H9          -0.7090    -0.4670     2.3950 h1         1 OFH       0.062200
     40 H9A         -0.4450    -0.7980     0.6780 h1         1 OFH       0.062200
     41 H10         -2.6120     1.5720     2.7690 hc         1 OFH       0.075700
     42 H10A        -3.1010     2.4000     1.2900 hc         1 OFH       0.075700
     43 H11          0.2230    -3.6460     1.7170 hc         1 OFH       0.090200
     44 H11A        -0.7940    -2.6610     2.8460 hc         1 OFH       0.090200
     45 H12         -2.6890    -4.2780     2.6150 hc         1 OFH       0.090200
     46 H12A        -1.6910    -5.3060     1.5020 hc         1 OFH       0.090200
     47 HN17        -5.8620     0.8710     0.7530 hn         1 OFH       0.322500
     48 H18         -7.0650     0.3130    -2.9830 h4         1 OFH      -0.038200
     49 HN19        -7.0110    -1.7730    -2.2280 hn         1 OFH       0.378400
     50 H20          2.2480     0.7880     2.7400 ha         1 OFH       0.147000
     51 H21          3.0700     1.7720    -2.0170 ha         1 OFH       0.155000
     52 H24         -7.7160     2.4870    -1.8900 hc         1 OFH       0.081200
     53 H24A        -6.7610     3.0910    -0.4640 hc         1 OFH       0.081200
     54 H25         -4.6300     2.8570    -1.7780 hc         1 OFH       0.081200
     55 H25A        -5.5680     2.2460    -3.2100 hc         1 OFH       0.081200
     56 H26          6.1780     0.2280     0.7390 h1         1 OFH       0.079700
     57 H38          4.3120     0.0580     1.7320 ha         1 OFH       0.129000
     58 H39          4.8690    -1.8780     0.3990 hc         1 OFH       0.065033
     59 H39A         5.5720    -2.0750    -1.2050 hc         1 OFH       0.065033
     60 H39B         6.5870    -2.1830     0.2420 hc         1 OFH       0.065033
     61 O22         -0.3360     3.5850     1.4800 o          1 OFH      -0.517500
     62 O28          4.9380     0.5180    -0.9060 os         1 OFH      -0.328100
     63 F34          7.4240     1.5010    -1.1460 f          1 OFH      -0.104000
@<TRIPOS>BOND
     1     1     4 1   
     2     1     8 1   
     3     1    11 1   
     4     1    12 1   
     5     2     5 1   
     6     2     6 1   
     7     2    22 2   
     8     2    61 2   
     9     3     4 1   
    10     3     7 1   
    11     3     9 1   
    12     4    26 2   
    13     5     9 1   
    14     5    10 1   
    15     5    37 1   
    16     6    16 ar  
    17     6    20 ar  
    18     7    10 1   
    19     7    13 1   
    20     7    38 1   
    21     8    29 1   
    22     8    30 1   
    23     8    31 1   
    24     9    39 1   
    25     9    40 1   
    26    10    41 1   
    27    10    42 1   
    28    11    12 1   
    29    11    43 1   
    30    11    44 1   
    31    12    45 1   
    32    12    46 1   
    33    13    17 1   
    34    13    28 2   
    35    14    17 1   
    36    14    18 1   
    37    14    23 1   
    38    14    24 1   
    39    15    25 1   
    40    15    32 1   
    41    15    33 1   
    42    15    63 1   
    43    16    21 ar  
    44    16    34 1   
    45    17    47 1   
    46    18    19 2   
    47    18    48 1   
    48    19    49 1   
    49    20    35 ar  
    50    20    50 1   
    51    21    27 ar  
    52    21    51 1   
    53    23    24 1   
    54    23    52 1   
    55    23    53 1   
    56    24    54 1   
    57    24    55 1   
    58    25    36 1   
    59    25    56 1   
    60    25    62 1   
    61    27    35 ar  
    62    27    62 1   
    63    35    57 1   
    64    36    58 1   
    65    36    59 1   
    66    36    60 1   
@<TRIPOS>SUBSTRUCTURE
     1 OFH         1 TEMP              0 ****  ****    0 ROOT
