@<TRIPOS>MOLECULE
OFI
   39    41     1     0     0
SMALL
No Charge or Current Charge


@<TRIPOS>ATOM
      1 C1          -0.9240    -0.3780     0.3840 ca         1 OFI      -0.260900
      2 C2          -0.0840    -1.4410     0.4660 ca         1 OFI      -0.015200
      3 C3          -2.2390    -0.9280     0.5820 cc         1 OFI       0.427500
      4 C4          -0.4560     0.9220     0.1530 ca         1 OFI      -0.035000
      5 C5           1.3020    -1.3080     0.3240 ca         1 OFI      -0.132000
      6 N6          -0.8590    -2.5590     0.7010 na         1 OFI      -0.065400
      7 N7          -2.2260    -2.2510     0.7770 nd         1 OFI      -0.511100
      8 N8          -3.3410    -0.1070     0.5570 ns         1 OFI      -0.412400
      9 C9           0.9370     1.0930     0.0050 ca         1 OFI      -0.146000
     10 C10          1.8420    -0.0120     0.0870 cp         1 OFI       0.021000
     11 C11         -4.6670    -0.4380     0.7220 c          1 OFI       0.605100
     12 C12          3.3180     0.1880    -0.0710 cp         1 OFI      -0.081000
     13 C13         -5.6300     0.7550     0.6520 c3         1 OFI      -0.159400
     14 O14         -5.0680    -1.5730     0.9370 o          1 OFI      -0.544100
     15 C15          3.9550     1.3640     0.4050 ca         1 OFI      -0.056500
     16 C16          4.1270    -0.7920    -0.7010 ca         1 OFI      -0.056500
     17 C17         -6.4340     0.7620    -0.6700 c3         1 OFI      -0.065400
     18 C18          5.3410     1.5510     0.2570 ca         1 OFI      -0.178500
     19 C19          5.5120    -0.6030    -0.8500 ca         1 OFI      -0.178500
     20 C20         -7.4120     1.9490    -0.7740 c3         1 OFI      -0.092100
     21 C21          6.1180     0.5660    -0.3710 ca         1 OFI       0.146100
     22 O22          7.4610     0.7390    -0.5190 oh         1 OFI      -0.531100
     23 H4          -1.1330     1.7720     0.0850 ha         1 OFI       0.111000
     24 H5           1.9470    -2.1780     0.4080 ha         1 OFI       0.123000
     25 HN8         -3.1690     0.8740     0.3960 hn         1 OFI       0.321500
     26 H9           1.3210     2.0910    -0.1890 ha         1 OFI       0.116000
     27 H13         -6.3370     0.6830     1.4870 hc         1 OFI       0.056200
     28 H13A        -5.0730     1.6980     0.7220 hc         1 OFI       0.056200
     29 H15          3.3710     2.1320     0.9070 ha         1 OFI       0.116000
     30 H16          3.6750    -1.7010    -1.0920 ha         1 OFI       0.116000
     31 H17         -5.7400     0.7960    -1.5200 hc         1 OFI       0.056700
     32 H17A        -7.0000    -0.1750    -0.7590 hc         1 OFI       0.056700
     33 H18          5.8010     2.4600     0.6350 ha         1 OFI       0.122000
     34 H19          6.1140    -1.3650    -1.3390 ha         1 OFI       0.122000
     35 H20         -8.1420     1.9230     0.0440 hc         1 OFI       0.033033
     36 H20A        -6.8720     2.9020    -0.7260 hc         1 OFI       0.033033
     37 H20B        -7.9590     1.9110    -1.7230 hc         1 OFI       0.033033
     38 HO22         7.7060     1.6060    -0.1300 ho         1 OFI       0.466000
     39 HN6         -0.5180    -3.5130     0.8130 hn         1 OFI       0.381000
@<TRIPOS>BOND
     1     1     2 ar  
     2     1     3 1   
     3     1     4 ar  
     4     2     5 ar  
     5     2     6 1   
     6     3     7 2   
     7     3     8 1   
     8     4     9 ar  
     9     4    23 1   
    10     5    10 ar  
    11     5    24 1   
    12     6     7 1   
    13     6    39 1   
    14     8    11 1   
    15     8    25 1   
    16     9    10 ar  
    17     9    26 1   
    18    10    12 1   
    19    11    13 1   
    20    11    14 2   
    21    12    15 ar  
    22    12    16 ar  
    23    13    17 1   
    24    13    27 1   
    25    13    28 1   
    26    15    18 ar  
    27    15    29 1   
    28    16    19 ar  
    29    16    30 1   
    30    17    20 1   
    31    17    31 1   
    32    17    32 1   
    33    18    21 ar  
    34    18    33 1   
    35    19    21 ar  
    36    19    34 1   
    37    20    35 1   
    38    20    36 1   
    39    20    37 1   
    40    21    22 1   
    41    22    38 1   
@<TRIPOS>SUBSTRUCTURE
     1 OFI         1 TEMP              0 ****  ****    0 ROOT
