@<TRIPOS>MOLECULE
OFI
   39    41     1     0     0
SMALL
bcc


@<TRIPOS>ATOM
      1 C1          -0.8130    -0.1150     0.2420 ca         1 OFI      -0.260900
      2 C2          -0.0050    -1.2480     0.4140 ca         1 OFI      -0.015200
      3 C3          -2.1400    -0.6140     0.3950 cc         1 OFI       0.427500
      4 C4          -0.2210     1.1250    -0.0240 ca         1 OFI      -0.053000
      5 C5           1.3890    -1.1850     0.3410 ca         1 OFI      -0.150000
      6 N6          -0.8480    -2.2760     0.6430 na         1 OFI      -0.015100
      7 N7          -2.1370    -1.8990     0.6350 nd         1 OFI      -0.511100
      8 N8          -3.2800     0.1700     0.3150 ns         1 OFI      -0.479400
      9 C9           1.1490     1.1900    -0.1040 ca         1 OFI      -0.164000
     10 C10          1.9670     0.0440     0.0780 cp         1 OFI       0.021000
     11 C11         -4.5670    -0.2530     0.1540 c          1 OFI       0.672100
     12 C12          3.4350     0.1670    -0.0170 cp         1 OFI      -0.081000
     13 C13         -5.5740     0.8770     0.1370 c3         1 OFI      -0.159400
     14 O14         -4.8710    -1.4230     0.0510 o          1 OFI      -0.544100
     15 C15          4.0990     1.3010     0.4480 ca         1 OFI      -0.074500
     16 C16          4.2120    -0.8550    -0.5680 ca         1 OFI      -0.074500
     17 C17         -6.9490     0.4610    -0.3640 c3         1 OFI      -0.065400
     18 C18          5.4780     1.4140     0.3770 ca         1 OFI      -0.196500
     19 C19          5.5890    -0.7570    -0.6480 ca         1 OFI      -0.196500
     20 C20         -7.9290     1.6250    -0.3500 c3         1 OFI      -0.092100
     21 C21          6.2360     0.3820    -0.1720 ca         1 OFI       0.146100
     22 O22          7.5770     0.4320    -0.2680 oh         1 OFI      -0.492100
     23 H4          -0.8170     2.0150    -0.1810 ha         1 OFI       0.129000
     24 H5           1.9940    -2.0670     0.5070 ha         1 OFI       0.141000
     25 HN8         -3.1260     1.1650     0.3560 hn         1 OFI       0.321500
     26 H9           1.6160     2.1370    -0.3380 ha         1 OFI       0.134000
     27 H13         -5.6500     1.2700     1.1570 hc         1 OFI       0.056200
     28 H13A        -5.1870     1.7030    -0.4670 hc         1 OFI       0.056200
     29 H15          3.5390     2.1110     0.8990 ha         1 OFI       0.134000
     30 H16          3.7330    -1.7410    -0.9650 ha         1 OFI       0.134000
     31 H17         -6.8640     0.0630    -1.3780 hc         1 OFI       0.056700
     32 H17A        -7.3360    -0.3510     0.2540 hc         1 OFI       0.056700
     33 H18          5.9630     2.3040     0.7600 ha         1 OFI       0.140000
     34 H19          6.1670    -1.5600    -1.0880 ha         1 OFI       0.140000
     35 H20         -8.0720     2.0130     0.6600 hc         1 OFI       0.033033
     36 H20A        -7.5790     2.4510    -0.9730 hc         1 OFI       0.033033
     37 H20B        -8.9050     1.3200    -0.7280 hc         1 OFI       0.033033
     38 HO22         7.9110     1.2630     0.0890 ho         1 OFI       0.427000
     39 HN6         -0.6200    -3.2440     0.7920 hn         1 OFI       0.330700
@<TRIPOS>BOND
     1     1     2 ar  
     2     1     3 1   
     3     1     4 ar  
     4     2     5 ar  
     5     2     6 1   
     6     3     7 2   
     7     3     8 1   
     8     4     9 ar  
     9     4    23 1   
    10     5    10 ar  
    11     5    24 1   
    12     6     7 1   
    13     6    39 1   
    14     8    11 1   
    15     8    25 1   
    16     9    10 ar  
    17     9    26 1   
    18    10    12 1   
    19    11    13 1   
    20    11    14 2   
    21    12    15 ar  
    22    12    16 ar  
    23    13    17 1   
    24    13    27 1   
    25    13    28 1   
    26    15    18 ar  
    27    15    29 1   
    28    16    19 ar  
    29    16    30 1   
    30    17    20 1   
    31    17    31 1   
    32    17    32 1   
    33    18    21 ar  
    34    18    33 1   
    35    19    21 ar  
    36    19    34 1   
    37    20    35 1   
    38    20    36 1   
    39    20    37 1   
    40    21    22 1   
    41    22    38 1   
@<TRIPOS>SUBSTRUCTURE
     1 OFI         1 TEMP              0 ****  ****    0 ROOT
