@<TRIPOS>MOLECULE
OFJ
   50    53     1     0     0
SMALL
No Charge or Current Charge


@<TRIPOS>ATOM
      1 C1           5.8900     1.0900     0.4850 cc         1 OFJ       0.158400
      2 C2           5.2740     0.1210    -0.2470 cd         1 OFJ      -0.293600
      3 C3           5.4500    -1.3010     0.1020 c          1 OFJ       0.625600
      4 C4           6.8140    -0.4280     1.8400 cd         1 OFJ       0.721800
      5 N5           7.5740    -0.7170     2.8830 nv         1 OFJ      -1.046200
      6 C6           4.7020     2.1040    -1.1680 cc         1 OFJ      -0.193000
      7 C9           1.3600     0.8350    -1.6340 ca         1 OFJ      -0.123000
      8 C10          0.0450     0.5890    -1.2010 ca         1 OFJ      -0.068500
      9 C11         -0.4060    -0.7370    -0.9800 ca         1 OFJ      -0.135600
     10 C21         -7.2040    -1.9870     0.1290 c          1 OFJ       0.616700
     11 C22         -3.5630     2.5800     0.8690 c          1 OFJ       0.723600
     12 C13          1.8130    -1.5450    -1.6440 ca         1 OFJ      -0.123000
     13 C14         -1.8180    -1.0510    -0.5130 c          1 OFJ       0.612700
     14 C15         -4.0040     0.1530     0.1220 ca         1 OFJ      -0.003000
     15 C16         -4.9120    -0.9180    -0.0500 ca         1 OFJ      -0.122000
     16 C17         -6.2680    -0.8100     0.3320 ca         1 OFJ      -0.148600
     17 C12          0.5010    -1.7970    -1.2110 ca         1 OFJ      -0.068500
     18 C18         -6.7100     0.4080     0.8940 ca         1 OFJ      -0.153000
     19 C19         -5.8240     1.4820     1.0570 ca         1 OFJ      -0.074000
     20 C20         -4.4700     1.3790     0.6700 ca         1 OFJ      -0.179600
     21 C5           4.5250     0.7440    -1.2840 cd         1 OFJ      -0.054300
     22 C8           2.2530    -0.2270    -1.8570 ca         1 OFJ      -0.073300
     23 N1           6.6950     0.8480     1.5700 nc         1 OFJ      -0.714100
     24 N2           6.2530    -1.4590     1.1840 ns         1 OFJ      -0.455400
     25 N3           5.5480     2.3080    -0.0720 na         1 OFJ      -0.106000
     26 N4          -2.6370     0.0410    -0.2620 ns         1 OFJ      -0.162000
     27 N6          -8.4930    -1.8470     0.5100 nt         1 OFJ      -0.612000
     28 O1          -2.1880    -2.2110    -0.3580 o          1 OFJ      -0.630100
     29 O2           4.9580    -2.2490    -0.4880 o          1 OFJ      -0.553000
     30 O3          -6.8450    -3.0460    -0.3600 o          1 OFJ      -0.618100
     31 O4          -3.7760     3.3110     1.8250 o          1 OFJ      -0.704500
     32 O5          -2.6710     2.7840     0.0570 o          1 OFJ      -0.704500
     33 H1           7.3500    -1.5620     3.3930 hn         1 OFJ       0.490500
     34 H2           7.8120     0.0850     3.4530 hn         1 OFJ       0.490500
     35 H3           4.3040     2.9200    -1.7590 h4         1 OFJ       0.152000
     36 H4           3.6360     0.6810    -3.2260 hc         1 OFJ       0.052700
     37 H5           4.1650    -0.8710    -2.6500 hc         1 OFJ       0.052700
     38 H6           1.6850     1.8600    -1.7960 ha         1 OFJ       0.113000
     39 H7          -0.6060     1.4450    -1.0470 ha         1 OFJ       0.136000
     40 H8           2.4890    -2.3800    -1.8120 ha         1 OFJ       0.113000
     41 H9          -4.5770    -1.8490    -0.4980 ha         1 OFJ       0.154000
     42 H10          0.1910    -2.8290    -1.0540 ha         1 OFJ       0.136000
     43 H11         -7.7430     0.5400     1.2040 ha         1 OFJ       0.089000
     44 H12         -6.1980     2.4120     1.4830 ha         1 OFJ       0.130000
     45 H13          6.4360    -2.4040     1.4720 hn         1 OFJ       0.316500
     46 H14          5.8670     3.2040     0.2740 hn         1 OFJ       0.356000
     47 H15         -2.1830     0.9390    -0.3740 hn         1 OFJ       0.234000
     48 H16         -8.8060    -0.9800     0.9160 hn         1 OFJ       0.301500
     49 H17         -9.1310    -2.6180     0.3830 hn         1 OFJ       0.301500
     50 C7           3.6770     0.0560    -2.3260 c3         1 OFJ       0.041200
@<TRIPOS>BOND
     1     1     2 2   
     2     1    23 1   
     3     1    25 1   
     4     2     3 1   
     5     2    21 1   
     6     3    24 1   
     7     3    29 2   
     8     4     5 1   
     9     4    23 2   
    10     4    24 1   
    11     5    33 1   
    12     5    34 1   
    13     6    21 2   
    14     6    25 1   
    15     6    35 1   
    16     7     8 ar  
    17     7    22 ar  
    18     7    38 1   
    19     8     9 ar  
    20     8    39 1   
    21     9    13 1   
    22     9    17 ar  
    23    10    16 1   
    24    10    27 1   
    25    10    30 2   
    26    11    20 1   
    27    11    31 1   
    28    11    32 1   
    29    12    17 ar  
    30    12    22 ar  
    31    12    40 1   
    32    13    26 1   
    33    13    28 2   
    34    14    15 ar  
    35    14    20 ar  
    36    14    26 1   
    37    15    16 ar  
    38    15    41 1   
    39    16    18 ar  
    40    17    42 1   
    41    18    19 ar  
    42    18    43 1   
    43    19    20 ar  
    44    19    44 1   
    45    21    50 1   
    46    22    50 1   
    47    24    45 1   
    48    25    46 1   
    49    26    47 1   
    50    27    48 1   
    51    27    49 1   
    52    36    50 1   
    53    37    50 1   
@<TRIPOS>SUBSTRUCTURE
     1 OFJ         1 TEMP              0 ****  ****    0 ROOT
