@<TRIPOS>MOLECULE
OFJ
   50    53     1     0     0
SMALL
abcg2


@<TRIPOS>ATOM
      1 C1           5.7180     0.9800     0.5580 cc         1 OFJ       0.158400
      2 C2           5.1320     0.0330    -0.2820 cd         1 OFJ      -0.293600
      3 C3           5.3910    -1.3410    -0.0170 c          1 OFJ       0.625600
      4 C4           6.7120    -0.5050     1.8810 cd         1 OFJ       0.721800
      5 N5           7.5120    -0.8700     2.9010 nv         1 OFJ      -1.046200
      6 C6           4.5900     2.0640    -1.0260 cc         1 OFJ      -0.193000
      7 C9           1.1930     0.8720    -1.9760 ca         1 OFJ      -0.123000
      8 C10         -0.0980     0.6290    -1.5360 ca         1 OFJ      -0.068500
      9 C11         -0.4540    -0.6300    -1.0540 ca         1 OFJ      -0.135600
     10 C21         -6.9570    -2.0610     0.4240 c          1 OFJ       0.616700
     11 C22         -3.5330     2.6400     0.7950 c          1 OFJ       0.723600
     12 C13          1.8050    -1.3810    -1.4600 ca         1 OFJ      -0.123000
     13 C14         -1.8390    -0.9700    -0.6080 c          1 OFJ       0.612700
     14 C15         -3.9000     0.1360     0.2190 ca         1 OFJ      -0.003000
     15 C16         -4.7620    -0.9620     0.1630 ca         1 OFJ      -0.122000
     16 C17         -6.0960    -0.8380     0.5240 ca         1 OFJ      -0.148600
     17 C12          0.5120    -1.6330    -1.0320 ca         1 OFJ      -0.068500
     18 C18         -6.5820     0.3820     0.9830 ca         1 OFJ      -0.153000
     19 C19         -5.7220     1.4630     1.0610 ca         1 OFJ      -0.074000
     20 C20         -4.3880     1.3790     0.6830 ca         1 OFJ      -0.179600
     21 C5           4.4090     0.7400    -1.2960 cd         1 OFJ      -0.054300
     22 C8           2.1640    -0.1250    -1.9420 ca         1 OFJ      -0.073300
     23 N1           6.4960     0.7580     1.6350 nc         1 OFJ      -0.714100
     24 N2           6.1940    -1.5090     1.1150 ns         1 OFJ      -0.455400
     25 N3           5.3780     2.1990     0.0970 na         1 OFJ      -0.106000
     26 N4          -2.5670     0.0830    -0.1770 ns         1 OFJ      -0.162000
     27 N6          -8.2730    -1.8420     0.2850 nt         1 OFJ      -0.612000
     28 O1          -2.2350    -2.1280    -0.6400 o          1 OFJ      -0.630100
     29 O2           5.0130    -2.3250    -0.6400 o          1 OFJ      -0.553000
     30 O3          -6.4730    -3.1840     0.4680 o          1 OFJ      -0.618100
     31 O4          -4.0740     3.6500     1.2580 o          1 OFJ      -0.704500
     32 O5          -2.3360     2.5650     0.4080 o          1 OFJ      -0.704500
     33 H1           7.4800    -1.8090     3.2600 hn         1 OFJ       0.490500
     34 H2           7.7480    -0.1570     3.5700 hn         1 OFJ       0.490500
     35 H3           4.2160     2.9340    -1.5420 h4         1 OFJ       0.152000
     36 H4           3.5380     0.8790    -3.2280 hc         1 OFJ       0.052700
     37 H5           4.0310    -0.7430    -2.7830 hc         1 OFJ       0.052700
     38 H6           1.4460     1.8540    -2.3570 ha         1 OFJ       0.113000
     39 H7          -0.8250     1.4280    -1.6030 ha         1 OFJ       0.136000
     40 H8           2.5470    -2.1680    -1.4180 ha         1 OFJ       0.113000
     41 H9          -4.3970    -1.9170    -0.1750 ha         1 OFJ       0.154000
     42 H10          0.2520    -2.6210    -0.6740 ha         1 OFJ       0.136000
     43 H11         -7.6080     0.5000     1.3050 ha         1 OFJ       0.089000
     44 H12         -6.0930     2.4090     1.4270 ha         1 OFJ       0.130000
     45 H13          6.4180    -2.4660     1.3570 hn         1 OFJ       0.316500
     46 H14          5.6600     3.0730     0.5100 hn         1 OFJ       0.356000
     47 H15         -2.1320     1.0170    -0.0540 hn         1 OFJ       0.234000
     48 H16         -8.6510    -0.9300     0.0980 hn         1 OFJ       0.301500
     49 H17         -8.8970    -2.6240     0.1710 hn         1 OFJ       0.301500
     50 C7           3.5720     0.1690    -2.3990 c3         1 OFJ       0.041200
@<TRIPOS>BOND
     1     1     2 2   
     2     1    23 1   
     3     1    25 1   
     4     2     3 1   
     5     2    21 1   
     6     3    24 1   
     7     3    29 2   
     8     4     5 1   
     9     4    23 2   
    10     4    24 1   
    11     5    33 1   
    12     5    34 1   
    13     6    21 2   
    14     6    25 1   
    15     6    35 1   
    16     7     8 ar  
    17     7    22 ar  
    18     7    38 1   
    19     8     9 ar  
    20     8    39 1   
    21     9    13 1   
    22     9    17 ar  
    23    10    16 1   
    24    10    27 1   
    25    10    30 2   
    26    11    20 1   
    27    11    31 1   
    28    11    32 1   
    29    12    17 ar  
    30    12    22 ar  
    31    12    40 1   
    32    13    26 1   
    33    13    28 2   
    34    14    15 ar  
    35    14    20 ar  
    36    14    26 1   
    37    15    16 ar  
    38    15    41 1   
    39    16    18 ar  
    40    17    42 1   
    41    18    19 ar  
    42    18    43 1   
    43    19    20 ar  
    44    19    44 1   
    45    21    50 1   
    46    22    50 1   
    47    24    45 1   
    48    25    46 1   
    49    26    47 1   
    50    27    48 1   
    51    27    49 1   
    52    36    50 1   
    53    37    50 1   
@<TRIPOS>SUBSTRUCTURE
     1 OFJ         1 TEMP              0 ****  ****    0 ROOT
