@<TRIPOS>MOLECULE
OFK
   30    32     1     0     0
SMALL
No Charge or Current Charge


@<TRIPOS>ATOM
      1 CAC        -20.2360    -8.9520   -20.4070 c3         1 OFK      -0.182100
      2 CAB        -20.7100    -9.8370   -21.5600 c          1 OFK       0.609300
      3 OAA        -20.7870    -9.3680   -22.6880 o          1 OFK      -0.570100
      4 CAD        -21.0620   -11.2540   -21.2520 cc         1 OFK      -0.261300
      5 CAE        -21.0030   -11.8420   -20.0010 cd         1 OFK      -0.122000
      6 NAR        -21.5190   -12.3090   -22.0370 na         1 OFK      -0.011400
      7 CAQ        -21.7400   -12.2070   -23.4120 cc         1 OFK      -0.056000
      8 CAP        -22.1830   -13.4030   -23.9700 cd         1 OFK      -0.210000
      9 CAO        -22.3830   -14.6070   -23.1940 cd         1 OFK       0.363900
     10 NAN        -22.1700   -14.6840   -21.8840 nc         1 OFK      -0.642000
     11 CAM        -21.7490   -13.4900   -21.3570 cc         1 OFK       0.391500
     12 CAF        -21.4070   -13.2220   -20.0410 cd         1 OFK      -0.088200
     13 CAG        -21.4960   -14.1100   -18.8450 ca         1 OFK      -0.008800
     14 CAH        -20.8400   -13.7360   -17.6470 ca         1 OFK      -0.099500
     15 CAI        -20.9030   -14.5450   -16.4990 ca         1 OFK      -0.112500
     16 CAJ        -21.6280   -15.7440   -16.5200 ca         1 OFK      -0.111000
     17 CAK        -22.2900   -16.1310   -17.6930 ca         1 OFK      -0.112500
     18 CAL        -22.2260   -15.3240   -18.8420 ca         1 OFK      -0.099500
     19 H1         -19.9960    -7.9330   -20.7300 hc         1 OFK       0.063700
     20 H2         -20.9970    -8.9540   -19.6190 hc         1 OFK       0.063700
     21 H3         -19.3810    -9.4300   -19.9180 hc         1 OFK       0.063700
     22 H4         -20.7040   -11.3190   -19.0970 ha         1 OFK       0.206000
     23 H5         -21.5670   -11.2770   -23.9350 h4         1 OFK       0.182000
     24 H6         -22.3860   -13.4430   -25.0340 ha         1 OFK       0.143000
     25 H7         -22.7240   -15.5300   -23.6450 h4         1 OFK       0.032100
     26 H8         -20.2530   -12.8250   -17.5940 ha         1 OFK       0.117500
     27 H9         -20.3850   -14.2400   -15.5920 ha         1 OFK       0.110500
     28 H10        -21.6770   -16.3700   -15.6310 ha         1 OFK       0.111000
     29 H11        -22.8600   -17.0570   -17.7120 ha         1 OFK       0.110500
     30 H12        -22.7780   -15.6540   -19.7140 ha         1 OFK       0.117500
@<TRIPOS>BOND
     1     1     2 1   
     2     1    19 1   
     3     1    20 1   
     4     1    21 1   
     5     2     3 2   
     6     2     4 1   
     7     4     5 2   
     8     4     6 1   
     9     5    12 1   
    10     5    22 1   
    11     6     7 1   
    12     6    11 1   
    13     7     8 2   
    14     7    23 1   
    15     8     9 1   
    16     8    24 1   
    17     9    10 2   
    18     9    25 1   
    19    10    11 1   
    20    11    12 2   
    21    12    13 1   
    22    13    14 ar  
    23    13    18 ar  
    24    14    15 ar  
    25    14    26 1   
    26    15    16 ar  
    27    15    27 1   
    28    16    17 ar  
    29    16    28 1   
    30    17    18 ar  
    31    17    29 1   
    32    18    30 1   
@<TRIPOS>SUBSTRUCTURE
     1 OFK         1 TEMP              0 ****  ****    0 ROOT
