@<TRIPOS>MOLECULE
OFK
   30    32     1     0     0
SMALL
abcg2


@<TRIPOS>ATOM
      1 CAC        -20.3120    -8.9510   -20.4980 c3         1 OFK      -0.182100
      2 CAB        -20.7840    -9.9050   -21.5700 c          1 OFK       0.609300
      3 OAA        -20.8870    -9.5330   -22.7430 o          1 OFK      -0.570100
      4 CAD        -21.0870   -11.2540   -21.1560 cc         1 OFK      -0.261300
      5 CAE        -21.0400   -11.8180   -19.8800 cd         1 OFK      -0.122000
      6 NAR        -21.5010   -12.2630   -22.0190 na         1 OFK      -0.011400
      7 CAQ        -21.7020   -12.2590   -23.3650 cc         1 OFK      -0.056000
      8 CAP        -22.1040   -13.4150   -23.9680 cd         1 OFK      -0.210000
      9 CAO        -22.2870   -14.5670   -23.1750 cd         1 OFK       0.363900
     10 NAN        -22.0950   -14.5800   -21.8710 nc         1 OFK      -0.642000
     11 CAM        -21.7120   -13.4440   -21.2770 cc         1 OFK       0.391500
     12 CAF        -21.4220   -13.1630   -19.9240 cd         1 OFK      -0.088200
     13 CAG        -21.4980   -14.0840   -18.7870 ca         1 OFK      -0.008800
     14 CAH        -20.7340   -13.8430   -17.6350 ca         1 OFK      -0.099500
     15 CAI        -20.8080   -14.6890   -16.5370 ca         1 OFK      -0.112500
     16 CAJ        -21.6430   -15.8030   -16.5630 ca         1 OFK      -0.111000
     17 CAK        -22.4040   -16.0570   -17.7000 ca         1 OFK      -0.112500
     18 CAL        -22.3350   -15.2090   -18.7990 ca         1 OFK      -0.099500
     19 H1         -20.2280    -7.9530   -20.9220 hc         1 OFK       0.063700
     20 H2         -21.0000    -8.9330   -19.6510 hc         1 OFK       0.063700
     21 H3         -19.3350    -9.2640   -20.1210 hc         1 OFK       0.063700
     22 H4         -20.7660   -11.2730   -18.9910 ha         1 OFK       0.206000
     23 H5         -21.5240   -11.3250   -23.8710 h4         1 OFK       0.182000
     24 H6         -22.2720   -13.4400   -25.0340 ha         1 OFK       0.143000
     25 H7         -22.5970   -15.4990   -23.6340 h4         1 OFK       0.032100
     26 H8         -20.0660   -12.9920   -17.6040 ha         1 OFK       0.117500
     27 H9         -20.2060   -14.4820   -15.6610 ha         1 OFK       0.110500
     28 H10        -21.6980   -16.4660   -15.7080 ha         1 OFK       0.111000
     29 H11        -23.0600   -16.9180   -17.7320 ha         1 OFK       0.110500
     30 H12        -22.9350   -15.4140   -19.6730 ha         1 OFK       0.117500
@<TRIPOS>BOND
     1     1     2 1   
     2     1    19 1   
     3     1    20 1   
     4     1    21 1   
     5     2     3 2   
     6     2     4 1   
     7     4     5 2   
     8     4     6 1   
     9     5    12 1   
    10     5    22 1   
    11     6     7 1   
    12     6    11 1   
    13     7     8 2   
    14     7    23 1   
    15     8     9 1   
    16     8    24 1   
    17     9    10 2   
    18     9    25 1   
    19    10    11 1   
    20    11    12 2   
    21    12    13 1   
    22    13    14 ar  
    23    13    18 ar  
    24    14    15 ar  
    25    14    26 1   
    26    15    16 ar  
    27    15    27 1   
    28    16    17 ar  
    29    16    28 1   
    30    17    18 ar  
    31    17    29 1   
    32    18    30 1   
@<TRIPOS>SUBSTRUCTURE
     1 OFK         1 TEMP              0 ****  ****    0 ROOT
