@<TRIPOS>MOLECULE
OFL
   29    30     1     0     0
SMALL
No Charge or Current Charge


@<TRIPOS>ATOM
      1 C1          -2.9110     1.2410     2.0170 ca         1 OFL      -0.061000
      2 C2          -2.1820     0.9550     0.8540 ca         1 OFL      -0.185000
      3 C3          -0.9040     0.3710     0.9270 ca         1 OFL       0.399000
      4 C4          -0.3290     0.0940     2.1900 ca         1 OFL      -0.259300
      5 C5          -1.0740     0.3860     3.3580 ca         1 OFL      -0.040000
      6 C6          -2.3550     0.9520     3.2690 ca         1 OFL      -0.186000
      7 C7           1.0710    -0.5250     2.3070 c3         1 OFL       0.362300
      8 N           -0.2010     0.1190    -0.2490 nu         1 OFL      -1.006000
      9 C8          -2.1920    -1.1050    -3.1320 ca         1 OFL      -0.101000
     10 C9          -1.3000    -0.8800    -4.1880 ca         1 OFL      -0.180000
     11 C10         -0.0330    -0.3330    -3.9340 ca         1 OFL      -0.056000
     12 C11          0.3590     0.0040    -2.6160 ca         1 OFL      -0.192600
     13 C12         -0.5560    -0.2000    -1.5570 ca         1 OFL       0.323000
     14 C13         -1.8170    -0.7700    -1.8230 ca         1 OFL      -0.197000
     15 O1           2.2540     1.2190    -3.2870 o          1 OFL      -0.705500
     16 O2           2.2930     0.3670    -1.3140 o          1 OFL      -0.705500
     17 F1           1.4450    -0.7530     3.5880 f          1 OFL      -0.116667
     18 F2           1.1550    -1.7150     1.6700 f          1 OFL      -0.116667
     19 F3           2.0160     0.2810     1.7740 f          1 OFL      -0.116667
     20 H1          -3.8990     1.6910     1.9480 ha         1 OFL       0.099000
     21 H2          -2.6100     1.2070    -0.1110 ha         1 OFL       0.129000
     22 H5          -0.6680     0.1810     4.3470 ha         1 OFL       0.112000
     23 H6          -2.9140     1.1720     4.1750 ha         1 OFL       0.102000
     24 HN1          0.8220     0.1980    -0.1570 hn         1 OFL       0.581000
     25 H4          -3.1690    -1.5420    -3.3260 ha         1 OFL       0.084000
     26 H7          -1.5860    -1.1380    -5.2050 ha         1 OFL       0.090000
     27 H3           0.6530    -0.1780    -4.7650 ha         1 OFL       0.128000
     28 H8          -2.5100    -0.9720    -1.0120 ha         1 OFL       0.099000
     29 C14          1.7350     0.5820    -2.3820 c          1 OFL       0.718600
@<TRIPOS>BOND
     1     1     2 ar  
     2     1     6 ar  
     3     1    20 1   
     4     2     3 ar  
     5     2    21 1   
     6     3     4 ar  
     7     3     8 1   
     8     4     5 ar  
     9     4     7 1   
    10     5     6 ar  
    11     5    22 1   
    12     6    23 1   
    13     7    17 1   
    14     7    18 1   
    15     7    19 1   
    16     8    13 1   
    17     8    24 1   
    18     9    10 ar  
    19     9    14 ar  
    20     9    25 1   
    21    10    11 ar  
    22    10    26 1   
    23    11    12 ar  
    24    11    27 1   
    25    12    13 ar  
    26    12    29 1   
    27    13    14 ar  
    28    14    28 1   
    29    15    29 1   
    30    16    29 1   
@<TRIPOS>SUBSTRUCTURE
     1 OFL         1 TEMP              0 ****  ****    0 ROOT
