@<TRIPOS>MOLECULE
OFL
   29    30     1     0     0
SMALL
bcc


@<TRIPOS>ATOM
      1 C1          -2.8260     1.2420     1.8890 ca         1 OFL      -0.079000
      2 C2          -2.0720     0.9350     0.7710 ca         1 OFL      -0.203000
      3 C3          -0.8160     0.3290     0.8870 ca         1 OFL       0.260600
      4 C4          -0.3410     0.0430     2.1810 ca         1 OFL      -0.259300
      5 C5          -1.1010     0.3760     3.2980 ca         1 OFL      -0.058000
      6 C6          -2.3440     0.9690     3.1620 ca         1 OFL      -0.204000
      7 C7           0.9700    -0.6550     2.3630 c3         1 OFL       0.726200
      8 N           -0.0320     0.0520    -0.2200 nu         1 OFL      -0.674000
      9 C8          -2.1490    -1.1750    -2.9820 ca         1 OFL      -0.119000
     10 C9          -1.3680    -0.8500    -4.0860 ca         1 OFL      -0.198000
     11 C10         -0.1480    -0.2300    -3.8800 ca         1 OFL      -0.074000
     12 C11          0.3190     0.0930    -2.6070 ca         1 OFL      -0.192600
     13 C12         -0.4920    -0.2220    -1.4930 ca         1 OFL       0.184600
     14 C13         -1.7160    -0.8730    -1.7050 ca         1 OFL      -0.215000
     15 O1           2.2640     1.0730    -3.5270 o          1 OFL      -0.810800
     16 O2           2.1280     0.9380    -1.3160 o          1 OFL      -0.810800
     17 F1           1.2350    -0.9110     3.6500 f          1 OFL      -0.237967
     18 F2           1.0130    -1.8340     1.7260 f          1 OFL      -0.237967
     19 F3           2.0090     0.0650     1.9040 f          1 OFL      -0.237967
     20 H1          -3.7900     1.7180     1.7620 ha         1 OFL       0.117000
     21 H2          -2.4520     1.1850    -0.2090 ha         1 OFL       0.147000
     22 H5          -0.7320     0.1630     4.2920 ha         1 OFL       0.130000
     23 H6          -2.9260     1.2140     4.0400 ha         1 OFL       0.120000
     24 HN1          0.9380     0.4060    -0.2650 hn         1 OFL       0.525800
     25 H4          -3.0980    -1.6810    -3.1140 ha         1 OFL       0.102000
     26 H7          -1.7050    -1.0830    -5.0880 ha         1 OFL       0.108000
     27 H3           0.4740     0.0200    -4.7290 ha         1 OFL       0.146000
     28 H8          -2.3290    -1.1570    -0.8600 ha         1 OFL       0.117000
     29 C14          1.6790     0.7580    -2.4800 c          1 OFL       0.929200
@<TRIPOS>BOND
     1     1     2 ar  
     2     1     6 ar  
     3     1    20 1   
     4     2     3 ar  
     5     2    21 1   
     6     3     4 ar  
     7     3     8 1   
     8     4     5 ar  
     9     4     7 1   
    10     5     6 ar  
    11     5    22 1   
    12     6    23 1   
    13     7    17 1   
    14     7    18 1   
    15     7    19 1   
    16     8    13 1   
    17     8    24 1   
    18     9    10 ar  
    19     9    14 ar  
    20     9    25 1   
    21    10    11 ar  
    22    10    26 1   
    23    11    12 ar  
    24    11    27 1   
    25    12    13 ar  
    26    12    29 1   
    27    13    14 ar  
    28    14    28 1   
    29    15    29 1   
    30    16    29 1   
@<TRIPOS>SUBSTRUCTURE
     1 OFL         1 TEMP              0 ****  ****    0 ROOT
