@<TRIPOS>MOLECULE
OFM
   57    60     1     0     0
SMALL
No Charge or Current Charge


@<TRIPOS>ATOM
      1 N0          -4.3270     2.3510    -1.0360 n8         1 OFM      -1.031200
      2 CA0         -3.4180     1.4510    -0.2410 c3         1 OFM       0.140500
      3 C0          -2.0270     1.2810    -0.9780 c5         1 OFM       0.558200
      4 O0          -2.3520     1.3070    -2.3320 oh         1 OFM      -0.611000
      5 CB0         -4.1620     0.1200     0.0580 c3         1 OFM      -0.039100
      6 CG0         -5.5230     0.3190     0.7240 ca         1 OFM      -0.078300
      7 CDX         -5.6000     0.7820     2.0530 ca         1 OFM      -0.109500
      8 CDY         -6.7120     0.0400     0.0210 ca         1 OFM      -0.109500
      9 CEX         -6.8500     0.9670     2.6690 ca         1 OFM      -0.114500
     10 CEY         -7.9620     0.2260     0.6370 ca         1 OFM      -0.114500
     11 CZ0         -8.0310     0.6900     1.9610 ca         1 OFM      -0.120000
     12 N1          -1.2930     0.0500    -0.6500 n2         1 OFM      -0.548900
     13 CA1         -0.0330     0.3750    -0.5560 ce         1 OFM       0.406000
     14 CB1          0.1720     1.8700    -0.7880 c5         1 OFM       0.107000
     15 CG1          0.7720     2.2240    -2.1700 c3         1 OFM      -0.094100
     16 OG1         -1.1660     2.3820    -0.6760 os         1 OFM      -0.513000
     17 C1           1.0680    -0.5370    -0.1360 cc         1 OFM       0.487600
     18 N2           2.3220    -0.1020     0.0830 nd         1 OFM      -0.664300
     19 N3           0.9000    -1.9050     0.1100 n          1 OFM      -0.279300
     20 C2           2.0990    -2.4480     0.5080 c          1 OFM       0.532200
     21 O2           2.3510    -3.6130     0.7940 o          1 OFM      -0.520000
     22 CA2          2.9760    -1.2610     0.4850 cd         1 OFM       0.026400
     23 CA3         -0.3190    -2.7450    -0.1000 c3         1 OFM      -0.064000
     24 C3          -0.7190    -2.9740    -1.5760 c          1 OFM       0.717000
     25 O3           0.0660    -2.6500    -2.4570 o          1 OFM      -0.715000
     26 CB2          4.3220    -1.2800     0.7940 ce         1 OFM      -0.096200
     27 CG2          5.3460    -0.1910     0.7800 ca         1 OFM      -0.077800
     28 CD1          5.0180     1.1470     1.0840 ca         1 OFM      -0.050000
     29 CD2          6.6860    -0.5160     0.4850 ca         1 OFM      -0.050000
     30 CE1          6.0110     2.1430     1.0740 ca         1 OFM      -0.190000
     31 CE2          7.6770     0.4820     0.4740 ca         1 OFM      -0.190000
     32 CZ           7.3370     1.8110     0.7670 ca         1 OFM       0.133100
     33 OH           8.2920     2.7820     0.7600 oh         1 OFM      -0.538100
     34 H1          -5.2780     2.2560    -0.6540 hn         1 OFM       0.410500
     35 H2          -4.0930     3.3300    -0.8160 hn         1 OFM       0.410500
     36 H4          -3.2330     1.9380     0.7270 h1         1 OFM       0.035700
     37 H5          -3.2320     1.7600    -2.2370 ho         1 OFM       0.475000
     38 H6          -4.2700    -0.4470    -0.8750 hc         1 OFM       0.080200
     39 H7          -3.5370    -0.4990     0.7130 hc         1 OFM       0.080200
     40 H8          -4.6900     0.9980     2.6100 ha         1 OFM       0.117500
     41 H9          -6.6700    -0.3190    -1.0060 ha         1 OFM       0.117500
     42 H10         -6.9020     1.3250     3.6950 ha         1 OFM       0.106500
     43 H11         -8.8760     0.0100     0.0880 ha         1 OFM       0.106500
     44 H12         -8.9980     0.8340     2.4380 ha         1 OFM       0.104000
     45 H13          0.7940     2.3210    -0.0040 h1         1 OFM       0.062700
     46 H14          0.2100     1.7670    -2.9930 hc         1 OFM       0.056033
     47 H15          0.7790     3.3090    -2.3260 hc         1 OFM       0.056033
     48 H16          1.8080     1.8730    -2.2440 hc         1 OFM       0.056033
     49 H17         -0.1600    -3.7360     0.3440 h1         1 OFM       0.059700
     50 H18         -1.1690    -2.2940     0.4250 h1         1 OFM       0.059700
     51 H20          4.7150    -2.2680     1.0380 ha         1 OFM       0.183000
     52 H21          3.9980     1.4200     1.3430 ha         1 OFM       0.131500
     53 H22          6.9600    -1.5440     0.2560 ha         1 OFM       0.131500
     54 H23          5.7490     3.1710     1.3100 ha         1 OFM       0.113000
     55 H24          8.7050     0.2140     0.2390 ha         1 OFM       0.113000
     56 H25          9.1510     2.3680     0.5280 ho         1 OFM       0.458000
     57 OXT         -1.7960    -3.5090    -1.7960 o          1 OFM      -0.715000
@<TRIPOS>BOND
     1     1     2 1   
     2     1    34 1   
     3     1    35 1   
     4     2     3 1   
     5     2     5 1   
     6     2    36 1   
     7     3     4 1   
     8     3    12 1   
     9     3    16 1   
    10     4    37 1   
    11     5     6 1   
    12     5    38 1   
    13     5    39 1   
    14     6     7 ar  
    15     6     8 ar  
    16     7     9 ar  
    17     7    40 1   
    18     8    10 ar  
    19     8    41 1   
    20     9    11 ar  
    21     9    42 1   
    22    10    11 ar  
    23    10    43 1   
    24    11    44 1   
    25    12    13 2   
    26    13    14 1   
    27    13    17 1   
    28    14    15 1   
    29    14    16 1   
    30    14    45 1   
    31    15    46 1   
    32    15    47 1   
    33    15    48 1   
    34    17    18 2   
    35    17    19 1   
    36    18    22 1   
    37    19    20 1   
    38    19    23 1   
    39    20    21 2   
    40    20    22 1   
    41    22    26 2   
    42    23    24 1   
    43    23    49 1   
    44    23    50 1   
    45    24    25 1   
    46    24    57 1   
    47    26    27 1   
    48    26    51 1   
    49    27    28 ar  
    50    27    29 ar  
    51    28    30 ar  
    52    28    52 1   
    53    29    31 ar  
    54    29    53 1   
    55    30    32 ar  
    56    30    54 1   
    57    31    32 ar  
    58    31    55 1   
    59    32    33 1   
    60    33    56 1   
@<TRIPOS>SUBSTRUCTURE
     1 OFM         1 TEMP              0 ****  ****    0 ROOT
