@<TRIPOS>MOLECULE
OFM
   57    60     1     0     0
SMALL
bcc


@<TRIPOS>ATOM
      1 N0          -4.2190     2.1620    -1.1230 n8         1 OFM      -0.920800
      2 CA0         -3.2870     1.2480    -0.4810 c3         1 OFM       0.140500
      3 C0          -2.3160     0.7790    -1.5890 c5         1 OFM       0.511800
      4 O0          -3.0260     0.4040    -2.7020 oh         1 OFM      -0.548800
      5 CB0         -4.0450     0.0710     0.1410 c3         1 OFM      -0.039100
      6 CG0         -5.0030     0.5130     1.2130 ca         1 OFM      -0.078300
      7 CDX         -4.5320     0.8880     2.4720 ca         1 OFM      -0.127500
      8 CDY         -6.3740     0.5810     0.9720 ca         1 OFM      -0.127500
      9 CEX         -5.4040     1.3210     3.4590 ca         1 OFM      -0.132500
     10 CEY         -7.2520     1.0140     1.9590 ca         1 OFM      -0.132500
     11 CZ0         -6.7700     1.3860     3.2050 ca         1 OFM      -0.138000
     12 N1          -1.4980    -0.3210    -1.1470 n2         1 OFM      -0.548900
     13 CA1         -0.2920     0.0580    -1.1500 ce         1 OFM       0.406000
     14 CB1         -0.0980     1.4730    -1.6190 c5         1 OFM       0.083800
     15 CG1          0.7960     1.6000    -2.8400 c3         1 OFM      -0.094100
     16 OG1         -1.4290     1.8470    -1.9020 os         1 OFM      -0.466600
     17 C1           0.8180    -0.7610    -0.6790 cc         1 OFM       0.487600
     18 N2           1.8990    -0.2150    -0.2330 nd         1 OFM      -0.664300
     19 N3           0.7800    -2.1310    -0.5820 n          1 OFM      -0.346300
     20 C2           1.9960    -2.5360    -0.0730 c          1 OFM       0.674700
     21 O2           2.3570    -3.6840     0.0960 o          1 OFM      -0.595500
     22 CA2          2.7030    -1.2620     0.1850 cd         1 OFM       0.026400
     23 CA3         -0.1380    -2.9950    -1.2830 c3         1 OFM      -0.064000
     24 C3          -0.1120    -2.7560    -2.8110 c          1 OFM       0.927600
     25 O3           0.6650    -1.8820    -3.2310 o          1 OFM      -0.820300
     26 CB2          3.9330    -1.2000     0.7410 ce         1 OFM      -0.046200
     27 CG2          4.7420    -0.0500     1.0600 ca         1 OFM      -0.077800
     28 CD1          4.3540     1.2810     0.8250 ca         1 OFM      -0.068000
     29 CD2          5.9970    -0.2680     1.6430 ca         1 OFM      -0.068000
     30 CE1          5.1810     2.3320     1.1590 ca         1 OFM      -0.208000
     31 CE2          6.8330     0.7780     1.9820 ca         1 OFM      -0.208000
     32 CZ           6.4300     2.0900     1.7410 ca         1 OFM       0.133100
     33 OH           7.1900     3.1500     2.0430 oh         1 OFM      -0.499100
     34 H1          -5.0380     2.3080    -0.5470 hn         1 OFM       0.355300
     35 H2          -3.7950     3.0710    -1.2550 hn         1 OFM       0.355300
     36 H4          -2.6880     1.7260     0.3060 h1         1 OFM       0.035700
     37 H5          -3.8340     0.9530    -2.6770 ho         1 OFM       0.436000
     38 H6          -4.5870    -0.4700    -0.6390 hc         1 OFM       0.080200
     39 H7          -3.3190    -0.6240     0.5650 hc         1 OFM       0.080200
     40 H8          -3.4690     0.8350     2.6810 ha         1 OFM       0.135500
     41 H9          -6.7600     0.2840     0.0040 ha         1 OFM       0.135500
     42 H10         -5.0200     1.6050     4.4300 ha         1 OFM       0.124500
     43 H11         -8.3140     1.0570     1.7520 ha         1 OFM       0.124500
     44 H12         -7.4510     1.7200     3.9770 ha         1 OFM       0.122000
     45 H13          0.3020     2.0880    -0.8040 h1         1 OFM       0.062700
     46 H14          0.4620     0.9450    -3.6420 hc         1 OFM       0.056033
     47 H15          0.7960     2.6290    -3.2000 hc         1 OFM       0.056033
     48 H16          1.8210     1.3340    -2.5840 hc         1 OFM       0.056033
     49 H17          0.1510    -4.0240    -1.0630 h1         1 OFM       0.059700
     50 H18         -1.1490    -2.8540    -0.9040 h1         1 OFM       0.059700
     51 H20          4.3750    -2.1620     0.9830 ha         1 OFM       0.133000
     52 H21          3.3940     1.4890     0.3760 ha         1 OFM       0.149500
     53 H22          6.3240    -1.2820     1.8350 ha         1 OFM       0.149500
     54 H23          4.8670     3.3510     0.9730 ha         1 OFM       0.131000
     55 H24          7.7980     0.5730     2.4330 ha         1 OFM       0.131000
     56 H25          8.0220     2.8710     2.4450 ho         1 OFM       0.419000
     57 OXT         -0.8830    -3.4800    -3.4620 o          1 OFM      -0.820300
@<TRIPOS>BOND
     1     1     2 1   
     2     1    34 1   
     3     1    35 1   
     4     2     3 1   
     5     2     5 1   
     6     2    36 1   
     7     3     4 1   
     8     3    12 1   
     9     3    16 1   
    10     4    37 1   
    11     5     6 1   
    12     5    38 1   
    13     5    39 1   
    14     6     7 ar  
    15     6     8 ar  
    16     7     9 ar  
    17     7    40 1   
    18     8    10 ar  
    19     8    41 1   
    20     9    11 ar  
    21     9    42 1   
    22    10    11 ar  
    23    10    43 1   
    24    11    44 1   
    25    12    13 2   
    26    13    14 1   
    27    13    17 1   
    28    14    15 1   
    29    14    16 1   
    30    14    45 1   
    31    15    46 1   
    32    15    47 1   
    33    15    48 1   
    34    17    18 2   
    35    17    19 1   
    36    18    22 1   
    37    19    20 1   
    38    19    23 1   
    39    20    21 2   
    40    20    22 1   
    41    22    26 2   
    42    23    24 1   
    43    23    49 1   
    44    23    50 1   
    45    24    25 1   
    46    24    57 1   
    47    26    27 1   
    48    26    51 1   
    49    27    28 ar  
    50    27    29 ar  
    51    28    30 ar  
    52    28    52 1   
    53    29    31 ar  
    54    29    53 1   
    55    30    32 ar  
    56    30    54 1   
    57    31    32 ar  
    58    31    55 1   
    59    32    33 1   
    60    33    56 1   
@<TRIPOS>SUBSTRUCTURE
     1 OFM         1 TEMP              0 ****  ****    0 ROOT
