@<TRIPOS>MOLECULE
OFQ
   32    34     1     0     0
SMALL
No Charge or Current Charge


@<TRIPOS>ATOM
      1 C1          -0.9750    -0.3830     0.2180 c6         1 OFQ       0.189200
      2 C2          -0.2780    -0.0090    -1.1470 c6         1 OFQ      -0.066700
      3 C3           0.3300     1.4310    -1.0800 c6         1 OFQ      -0.068900
      4 C4           1.3870     1.5070     0.0620 c6         1 OFQ      -0.060700
      5 C5           2.5370     0.5050    -0.2450 c6         1 OFQ      -0.068400
      6 C8           1.3000    -1.3040     1.0320 c6         1 OFQ      -0.068900
      7 C9           0.1280    -0.3130     1.3410 c6         1 OFQ      -0.066700
      8 C10          0.7290     1.1280     1.4230 c6         1 OFQ      -0.068900
      9 C6           1.9610    -0.9370    -0.3290 c6         1 OFQ      -0.060700
     10 C7           0.8940    -1.0000    -1.4620 c6         1 OFQ      -0.068900
     11 N           -1.5310    -1.7580     0.1310 n8         1 OFQ      -1.002200
     12 C           -2.2110     0.5530     0.5480 c3         1 OFQ       0.166600
     13 O           -3.3300     0.3360    -0.3370 oh         1 OFQ      -0.671000
     14 H1          -1.0130    -0.0480    -1.9630 hc         1 OFQ       0.061200
     15 H2           0.8030     1.6800    -2.0400 hc         1 OFQ       0.039575
     16 H3          -0.4490     2.1890    -0.9350 hc         1 OFQ       0.039575
     17 H4           1.7940     2.5260     0.1200 hc         1 OFQ       0.047700
     18 H5           3.0320     0.7730    -1.1880 hc         1 OFQ       0.038700
     19 H6           3.3080     0.5620     0.5360 hc         1 OFQ       0.038700
     20 H7           2.0490    -1.2600     1.8350 hc         1 OFQ       0.039575
     21 H8           0.9430    -2.3420     1.0140 hc         1 OFQ       0.039575
     22 H9          -0.3170    -0.5740     2.3110 hc         1 OFQ       0.061200
     23 H10          1.4800     1.1740     2.2240 hc         1 OFQ       0.039575
     24 H11         -0.0380     1.8640     1.6960 hc         1 OFQ       0.039575
     25 H12          2.7730    -1.6440    -0.5470 hc         1 OFQ       0.047700
     26 H13          0.5270    -2.0270    -1.5820 hc         1 OFQ       0.039575
     27 H14          1.3570    -0.7380    -2.4240 hc         1 OFQ       0.039575
     28 H15         -2.5290    -1.6280    -0.0790 hn         1 OFQ       0.401500
     29 H17         -1.1660    -2.1850    -0.7230 hn         1 OFQ       0.401500
     30 H18         -2.5230     0.3470     1.5810 h1         1 OFQ       0.027700
     31 H19         -1.9130     1.6070     0.5210 h1         1 OFQ       0.027700
     32 H20         -4.0350     0.9660    -0.0650 ho         1 OFQ       0.444000
@<TRIPOS>BOND
     1     1     2 1   
     2     1     7 1   
     3     1    11 1   
     4     1    12 1   
     5     2     3 1   
     6     2    10 1   
     7     2    14 1   
     8     3     4 1   
     9     3    15 1   
    10     3    16 1   
    11     4     5 1   
    12     4     8 1   
    13     4    17 1   
    14     5     9 1   
    15     5    18 1   
    16     5    19 1   
    17     6     7 1   
    18     6     9 1   
    19     6    20 1   
    20     6    21 1   
    21     7     8 1   
    22     7    22 1   
    23     8    23 1   
    24     8    24 1   
    25     9    10 1   
    26     9    25 1   
    27    10    26 1   
    28    10    27 1   
    29    11    28 1   
    30    11    29 1   
    31    12    13 1   
    32    12    30 1   
    33    12    31 1   
    34    13    32 1   
@<TRIPOS>SUBSTRUCTURE
     1 OFQ         1 TEMP              0 ****  ****    0 ROOT
