@<TRIPOS>MOLECULE
OFQ
   32    34     1     0     0
SMALL
bcc


@<TRIPOS>ATOM
      1 C1          -0.9800    -0.3700     0.2110 c6         1 OFQ       0.189200
      2 C2          -0.3050     0.0230    -1.1310 c6         1 OFQ      -0.066700
      3 C3           0.2960     1.4330    -1.0500 c6         1 OFQ      -0.068900
      4 C4           1.3530     1.4860     0.0560 c6         1 OFQ      -0.060700
      5 C5           2.4710     0.4920    -0.2690 c6         1 OFQ      -0.068400
      6 C8           1.2420    -1.2820     0.9900 c6         1 OFQ      -0.068900
      7 C9           0.1080    -0.2980     1.3060 c6         1 OFQ      -0.066700
      8 C10          0.7190     1.1060     1.3960 c6         1 OFQ      -0.068900
      9 C6           1.8890    -0.9200    -0.3500 c6         1 OFQ      -0.060700
     10 C7           0.8320    -0.9560    -1.4560 c6         1 OFQ      -0.068900
     11 N           -1.5570    -1.7150     0.2050 n8         1 OFQ      -0.891800
     12 C           -2.1320     0.5680     0.5700 c3         1 OFQ       0.143400
     13 O           -3.1220     0.5000    -0.4360 oh         1 OFQ      -0.608800
     14 H1          -1.0500    -0.0130    -1.9310 hc         1 OFQ       0.061200
     15 H2           0.7520     1.6850    -2.0130 hc         1 OFQ       0.039575
     16 H3          -0.4790     2.1850    -0.8790 hc         1 OFQ       0.039575
     17 H4           1.7680     2.4970     0.1180 hc         1 OFQ       0.047700
     18 H5           2.9460     0.7570    -1.2190 hc         1 OFQ       0.038700
     19 H6           3.2530     0.5390     0.4980 hc         1 OFQ       0.038700
     20 H7           1.9870    -1.2370     1.7910 hc         1 OFQ       0.039575
     21 H8           0.8810    -2.3150     0.9780 hc         1 OFQ       0.039575
     22 H9          -0.3460    -0.5660     2.2660 hc         1 OFQ       0.061200
     23 H10          1.4800     1.1140     2.1840 hc         1 OFQ       0.039575
     24 H11         -0.0260     1.8480     1.6940 hc         1 OFQ       0.039575
     25 H12          2.6840    -1.6360    -0.5780 hc         1 OFQ       0.047700
     26 H13          0.4530    -1.9730    -1.6000 hc         1 OFQ       0.039575
     27 H14          1.2840    -0.6710    -2.4120 hc         1 OFQ       0.039575
     28 H15         -2.3140    -1.7530    -0.4670 hn         1 OFQ       0.346300
     29 H17         -0.8800    -2.3960    -0.1110 hn         1 OFQ       0.346300
     30 H18         -2.5300     0.2510     1.5430 h1         1 OFQ       0.027700
     31 H19         -1.7770     1.5950     0.6910 h1         1 OFQ       0.027700
     32 H20         -3.8770     1.0200    -0.1490 ho         1 OFQ       0.405000
@<TRIPOS>BOND
     1     1     2 1   
     2     1     7 1   
     3     1    11 1   
     4     1    12 1   
     5     2     3 1   
     6     2    10 1   
     7     2    14 1   
     8     3     4 1   
     9     3    15 1   
    10     3    16 1   
    11     4     5 1   
    12     4     8 1   
    13     4    17 1   
    14     5     9 1   
    15     5    18 1   
    16     5    19 1   
    17     6     7 1   
    18     6     9 1   
    19     6    20 1   
    20     6    21 1   
    21     7     8 1   
    22     7    22 1   
    23     8    23 1   
    24     8    24 1   
    25     9    10 1   
    26     9    25 1   
    27    10    26 1   
    28    10    27 1   
    29    11    28 1   
    30    11    29 1   
    31    12    13 1   
    32    12    30 1   
    33    12    31 1   
    34    13    32 1   
@<TRIPOS>SUBSTRUCTURE
     1 OFQ         1 TEMP              0 ****  ****    0 ROOT
