@<TRIPOS>MOLECULE
OFR
   51    53     1     0     0
SMALL
No Charge or Current Charge


@<TRIPOS>ATOM
      1 C10         11.2110    -6.7000    -0.1030 cc         1 OFR       0.336600
      2 C13          7.9520    -8.1830     0.9790 c3         1 OFR      -0.065900
      3 C15         10.6130    -8.2360    -1.9980 c6         1 OFR       0.140000
      4 C17          9.3650    -6.3730    -3.2250 ca         1 OFR      -0.087500
      5 C21         10.0160    -7.4650    -5.7270 ca         1 OFR      -0.115500
      6 C22         10.4580    -8.0920    -4.5490 ca         1 OFR      -0.087500
      7 C26          8.3290   -11.4400    -3.3660 c3         1 OFR       0.199800
      8 C28          9.0720   -11.1520    -5.7790 c2         1 OFR      -0.295000
      9 C01         10.8630    -3.8690     1.5890 c3         1 OFR      -0.118100
     10 C04         13.3580    -5.5850     0.0210 c          1 OFR       0.627000
     11 C07         12.9120    -7.1080    -1.8330 c          1 OFR       0.609200
     12 C09         11.5770    -7.3230    -1.2590 cd         1 OFR      -0.339400
     13 C12          9.1060    -7.9630     0.0170 c2         1 OFR       0.188800
     14 C14          9.3920    -8.6410    -1.1280 ce         1 OFR      -0.235400
     15 C16         10.1340    -7.5520    -3.2890 ca         1 OFR      -0.077300
     16 C18          8.9240    -5.7460    -4.4030 ca         1 OFR      -0.115500
     17 C19          9.2480    -6.2880    -5.6610 ca         1 OFR      -0.076300
     18 C23          8.5500    -9.7900    -1.6260 c          1 OFR       0.622300
     19 C27          9.0740   -11.8370    -4.6220 c2         1 OFR      -0.225200
     20 N03         12.0760    -5.8270     0.5520 n          1 OFR      -0.334000
     21 N06         13.6740    -6.2460    -1.1210 ns         1 OFR      -0.466500
     22 N11          9.9670    -6.9440     0.4050 nu         1 OFR      -0.703000
     23 O05         14.1690    -4.8280     0.5300 o          1 OFR      -0.557000
     24 O08         13.3320    -7.6390    -2.8480 o          1 OFR      -0.530000
     25 O24          7.5390   -10.2020    -1.0720 o          1 OFR      -0.513000
     26 O25          9.0490   -10.3520    -2.7720 os         1 OFR      -0.433100
     27 H131         7.9640    -7.4840     1.8230 hc         1 OFR       0.065367
     28 H132         6.9900    -8.0540     0.4700 hc         1 OFR       0.065367
     29 H133         7.9800    -9.1950     1.3980 hc         1 OFR       0.065367
     30 H151        11.1630    -9.1530    -2.2580 hc         1 OFR       0.089700
     31 H171         9.1070    -5.9420    -2.2610 ha         1 OFR       0.111500
     32 H202         7.7880    -6.0050    -7.2390 hc         1 OFR       0.040033
     33 H201         8.6650    -4.5290    -6.8010 hc         1 OFR       0.040033
     34 H203         9.4650    -5.7770    -7.7640 hc         1 OFR       0.040033
     35 H211        10.2710    -7.8970    -6.6920 ha         1 OFR       0.107500
     36 H221        11.0500    -9.0020    -4.6180 ha         1 OFR       0.111500
     37 H261         7.3050   -11.1380    -3.6210 h1         1 OFR       0.052200
     38 H262         8.2740   -12.2940    -2.6770 h1         1 OFR       0.052200
     39 H281         8.5140   -10.2210    -5.8920 ha         1 OFR       0.165000
     40 H282         9.6340   -11.4950    -6.6490 ha         1 OFR       0.165000
     41 H011        10.6080    -3.4010     2.5470 hc         1 OFR       0.051033
     42 H013        11.4250    -3.1410     0.9920 hc         1 OFR       0.051033
     43 H012         9.9310    -4.1000     1.0600 hc         1 OFR       0.051033
     44 H022        11.1550    -5.8330     2.4690 h1         1 OFR       0.068200
     45 H021        12.6080    -4.8640     2.3800 h1         1 OFR       0.068200
     46 H181         8.3280    -4.8390    -4.3370 ha         1 OFR       0.107500
     47 H271         9.6430   -12.7640    -4.5260 ha         1 OFR       0.181000
     48 H061        14.5950    -6.0690    -1.4870 hn         1 OFR       0.346500
     49 H111         9.7220    -6.4130     1.2350 hn         1 OFR       0.507000
     50 C20          8.7660    -5.6130    -6.9350 c3         1 OFR      -0.044800
     51 C02         11.7050    -5.1390     1.8200 c3         1 OFR       0.094000
@<TRIPOS>BOND
     1     1    12 2   
     2     1    20 1   
     3     1    22 1   
     4     2    13 1   
     5     2    27 1   
     6     2    28 1   
     7     2    29 1   
     8     3    12 1   
     9     3    14 1   
    10     3    15 1   
    11     3    30 1   
    12     4    15 ar  
    13     4    16 ar  
    14     4    31 1   
    15     5     6 ar  
    16     5    17 ar  
    17     5    35 1   
    18     6    15 ar  
    19     6    36 1   
    20     7    19 1   
    21     7    26 1   
    22     7    37 1   
    23     7    38 1   
    24     8    19 2   
    25     8    39 1   
    26     8    40 1   
    27     9    41 1   
    28     9    42 1   
    29     9    43 1   
    30     9    51 1   
    31    10    20 1   
    32    10    21 1   
    33    10    23 2   
    34    11    12 1   
    35    11    21 1   
    36    11    24 2   
    37    13    14 2   
    38    13    22 1   
    39    14    18 1   
    40    16    17 ar  
    41    16    46 1   
    42    17    50 1   
    43    18    25 2   
    44    18    26 1   
    45    19    47 1   
    46    20    51 1   
    47    21    48 1   
    48    22    49 1   
    49    32    50 1   
    50    33    50 1   
    51    34    50 1   
    52    44    51 1   
    53    45    51 1   
@<TRIPOS>SUBSTRUCTURE
     1 OFR         1 TEMP              0 ****  ****    0 ROOT
