@<TRIPOS>MOLECULE
OFR
   51    53     1     0     0
SMALL
abcg2


@<TRIPOS>ATOM
      1 C10         11.2200    -6.7350    -0.1320 cc         1 OFR       0.336600
      2 C13          7.9730    -8.2060     0.8220 c3         1 OFR      -0.065900
      3 C15         10.6490    -8.2320    -2.0510 c6         1 OFR       0.140000
      4 C17          9.3960    -6.3350    -3.1680 ca         1 OFR      -0.087500
      5 C21         10.1020    -7.2110    -5.6880 ca         1 OFR      -0.115500
      6 C22         10.5190    -7.9110    -4.5620 ca         1 OFR      -0.087500
      7 C26          8.4390   -11.4380    -3.3190 c3         1 OFR       0.199800
      8 C28          8.5420   -11.8610    -5.7640 c2         1 OFR      -0.295000
      9 C01         10.7940    -3.8870     1.3910 c3         1 OFR      -0.118100
     10 C04         13.3170    -5.5960     0.0890 c          1 OFR       0.627000
     11 C07         12.9470    -7.2130    -1.7370 c          1 OFR       0.609200
     12 C09         11.6100    -7.3880    -1.2580 cd         1 OFR      -0.339400
     13 C12          9.1620    -7.9800    -0.0600 c2         1 OFR       0.188800
     14 C14          9.4890    -8.6680    -1.1800 ce         1 OFR      -0.235400
     15 C16         10.1740    -7.4850    -3.2870 ca         1 OFR      -0.077300
     16 C18          8.9800    -5.6370    -4.2900 ca         1 OFR      -0.115500
     17 C19          9.3270    -6.0620    -5.5730 ca         1 OFR      -0.076300
     18 C23          8.6850    -9.8180    -1.6060 c          1 OFR       0.622300
     19 C27          9.1430   -11.8000    -4.5830 c2         1 OFR      -0.225200
     20 N03         12.0420    -5.8700     0.5530 n          1 OFR      -0.334000
     21 N06         13.7040    -6.3120    -1.0050 ns         1 OFR      -0.466500
     22 N11          9.9740    -6.9540     0.3750 nu         1 OFR      -0.703000
     23 O05         14.0470    -4.7870     0.6230 o          1 OFR      -0.557000
     24 O08         13.4350    -7.7720    -2.7060 o          1 OFR      -0.530000
     25 O24          7.7470   -10.3060    -1.0150 o          1 OFR      -0.513000
     26 O25          9.1180   -10.3040    -2.7690 os         1 OFR      -0.433100
     27 H131         7.8750    -7.4050     1.5530 hc         1 OFR       0.065367
     28 H132         7.0510    -8.2520     0.2490 hc         1 OFR       0.065367
     29 H133         8.0660    -9.1420     1.3710 hc         1 OFR       0.065367
     30 H151        11.1930    -9.1150    -2.3920 hc         1 OFR       0.089700
     31 H171         9.1070    -5.9720    -2.1880 ha         1 OFR       0.111500
     32 H202         7.7820    -5.3530    -6.8950 hc         1 OFR       0.040033
     33 H201         9.1300    -4.2460    -6.7140 hc         1 OFR       0.040033
     34 H203         9.3110    -5.6970    -7.6970 hc         1 OFR       0.040033
     35 H211        10.3870    -7.5670    -6.6710 ha         1 OFR       0.107500
     36 H221        11.1220    -8.8030    -4.6820 ha         1 OFR       0.111500
     37 H261         7.3900   -11.2010    -3.5090 h1         1 OFR       0.052200
     38 H262         8.4750   -12.2690    -2.6090 h1         1 OFR       0.052200
     39 H281         7.4920   -11.6210    -5.8830 ha         1 OFR       0.165000
     40 H282         9.0770   -12.1590    -6.6550 ha         1 OFR       0.165000
     41 H011        10.4930    -3.3820     2.3090 hc         1 OFR       0.051033
     42 H013        11.3970    -3.1930     0.8070 hc         1 OFR       0.051033
     43 H012         9.8910    -4.1120     0.8240 hc         1 OFR       0.051033
     44 H022        11.0290    -5.8110     2.3820 h1         1 OFR       0.068200
     45 H021        12.4760    -4.8670     2.3070 h1         1 OFR       0.068200
     46 H181         8.3770    -4.7450    -4.1680 ha         1 OFR       0.107500
     47 H271        10.1970   -12.0480    -4.4960 ha         1 OFR       0.181000
     48 H061        14.6450    -6.1310    -1.3330 hn         1 OFR       0.346500
     49 H111         9.6640    -6.4490     1.1880 hn         1 OFR       0.507000
     50 C20          8.8670    -5.3020    -6.7840 c3         1 OFR      -0.044800
     51 C02         11.5900    -5.1340     1.7380 c3         1 OFR       0.094000
@<TRIPOS>BOND
     1     1    12 2   
     2     1    20 1   
     3     1    22 1   
     4     2    13 1   
     5     2    27 1   
     6     2    28 1   
     7     2    29 1   
     8     3    12 1   
     9     3    14 1   
    10     3    15 1   
    11     3    30 1   
    12     4    15 ar  
    13     4    16 ar  
    14     4    31 1   
    15     5     6 ar  
    16     5    17 ar  
    17     5    35 1   
    18     6    15 ar  
    19     6    36 1   
    20     7    19 1   
    21     7    26 1   
    22     7    37 1   
    23     7    38 1   
    24     8    19 2   
    25     8    39 1   
    26     8    40 1   
    27     9    41 1   
    28     9    42 1   
    29     9    43 1   
    30     9    51 1   
    31    10    20 1   
    32    10    21 1   
    33    10    23 2   
    34    11    12 1   
    35    11    21 1   
    36    11    24 2   
    37    13    14 2   
    38    13    22 1   
    39    14    18 1   
    40    16    17 ar  
    41    16    46 1   
    42    17    50 1   
    43    18    25 2   
    44    18    26 1   
    45    19    47 1   
    46    20    51 1   
    47    21    48 1   
    48    22    49 1   
    49    32    50 1   
    50    33    50 1   
    51    34    50 1   
    52    44    51 1   
    53    45    51 1   
@<TRIPOS>SUBSTRUCTURE
     1 OFR         1 TEMP              0 ****  ****    0 ROOT
