@<TRIPOS>MOLECULE
OFT
   49    52     1     0     0
SMALL
No Charge or Current Charge


@<TRIPOS>ATOM
      1 C1          -4.1710     2.5410     0.0720 ca         1 OFT      -0.016000
      2 C2          -3.5050     1.2990     0.1280 ca         1 OFT      -0.220900
      3 C3          -4.1490     0.1800     0.6420 ca         1 OFT       0.030800
      4 C4          -5.4620     0.2360     1.1240 ca         1 OFT      -0.144000
      5 C5          -6.1380     1.4700     1.0780 ca         1 OFT      -0.060000
      6 C6          -5.4940     2.6140     0.5550 ca         1 OFT      -0.151000
      7 C7          -2.1640     0.8790    -0.2920 cc         1 OFT       0.443200
      8 C8          -2.1090    -0.5280     0.0570 cc         1 OFT       0.082300
      9 N9          -3.3260    -0.9310     0.5980 na         1 OFT      -0.276700
     10 C10         -1.1460    -1.5460    -0.0510 cd         1 OFT      -0.238400
     11 C11          0.3010    -1.5040    -0.4180 ca         1 OFT      -0.079800
     12 C12          0.7710    -2.8100    -0.4270 ca         1 OFT       0.096600
     13 N13         -0.2750    -3.6350    -0.0570 ns         1 OFT      -0.387100
     14 C14         -1.4470    -2.9990     0.2130 c          1 OFT       0.574200
     15 C15          1.2070    -0.4540    -0.6650 ca         1 OFT       0.028000
     16 C16          2.5550    -0.7690    -0.9660 ca         1 OFT      -0.330500
     17 C17          2.9930    -2.1150    -1.0090 ca         1 OFT       0.015000
     18 C18          2.0910    -3.1550    -0.7210 ca         1 OFT      -0.173000
     19 O19         -2.4840    -3.5410     0.5700 o          1 OFT      -0.579000
     20 N20         -1.2380     1.5580    -0.9210 n2         1 OFT      -0.282700
     21 O21         -1.4810     2.9100    -1.2300 oh         1 OFT      -0.490000
     22 S22          3.7240     0.5690    -1.2730 sy         1 OFT       1.191600
     23 O23          4.9590     0.0370    -1.8600 o          1 OFT      -0.546500
     24 O24          2.9660     1.6460    -1.9200 o          1 OFT      -0.546500
     25 N25          4.1310     1.1190     0.2990 n3         1 OFT      -0.784500
     26 C26          3.8200     0.2030     1.4230 c3         1 OFT       0.227300
     27 C27          4.5680     0.5240     2.7320 c3         1 OFT      -0.114100
     28 C28          3.9620     2.5710     0.5570 c3         1 OFT       0.227300
     29 C29          2.5340     3.0070     0.9550 c3         1 OFT      -0.114100
     30 H1          -3.6990     3.4360    -0.3240 ha         1 OFT       0.134000
     31 H4          -5.9500    -0.6500     1.5230 ha         1 OFT       0.129000
     32 H5          -7.1590     1.5430     1.4470 ha         1 OFT       0.118000
     33 H6          -6.0250     3.5630     0.5240 ha         1 OFT       0.121000
     34 HN9         -3.5620    -1.8780     0.8860 hn         1 OFT       0.397000
     35 HN13        -0.1760    -4.6370     0.0400 hn         1 OFT       0.343500
     36 H15          0.9180     0.5830    -0.5870 ha         1 OFT       0.152000
     37 H17          4.0310    -2.3570    -1.2370 ha         1 OFT       0.136000
     38 H18          2.4150    -4.1920    -0.7180 ha         1 OFT       0.123000
     39 H10         -0.6710     3.2140    -1.7060 ho         1 OFT       0.485000
     40 H26          2.7410     0.1890     1.6280 h1         1 OFT       0.052700
     41 H12          4.1100    -0.8210     1.1520 h1         1 OFT       0.052700
     42 H27          5.6480     0.5870     2.5530 hc         1 OFT       0.044700
     43 H27A         4.2260     1.4710     3.1640 hc         1 OFT       0.044700
     44 H151         4.3880    -0.2650     3.4700 hc         1 OFT       0.044700
     45 H28          4.6380     2.8790     1.3660 h1         1 OFT       0.052700
     46 H28A         4.2770     3.1530    -0.3200 h1         1 OFT       0.052700
     47 H29          1.8070     2.7650     0.1730 hc         1 OFT       0.044700
     48 H29A         2.2170     2.5220     1.8850 hc         1 OFT       0.044700
     49 H29B         2.5070     4.0910     1.1160 hc         1 OFT       0.044700
@<TRIPOS>BOND
     1     1     2 ar  
     2     1     6 ar  
     3     1    30 1   
     4     2     3 ar  
     5     2     7 1   
     6     3     4 ar  
     7     3     9 1   
     8     4     5 ar  
     9     4    31 1   
    10     5     6 ar  
    11     5    32 1   
    12     6    33 1   
    13     7     8 1   
    14     7    20 2   
    15     8     9 1   
    16     8    10 2   
    17     9    34 1   
    18    10    11 1   
    19    10    14 1   
    20    11    12 ar  
    21    11    15 ar  
    22    12    13 1   
    23    12    18 ar  
    24    13    14 1   
    25    13    35 1   
    26    14    19 2   
    27    15    16 ar  
    28    15    36 1   
    29    16    17 ar  
    30    16    22 1   
    31    17    18 ar  
    32    17    37 1   
    33    18    38 1   
    34    20    21 1   
    35    21    39 1   
    36    22    23 2   
    37    22    24 2   
    38    22    25 1   
    39    25    26 1   
    40    25    28 1   
    41    26    27 1   
    42    26    40 1   
    43    26    41 1   
    44    27    42 1   
    45    27    43 1   
    46    27    44 1   
    47    28    29 1   
    48    28    45 1   
    49    28    46 1   
    50    29    47 1   
    51    29    48 1   
    52    29    49 1   
@<TRIPOS>SUBSTRUCTURE
     1 OFT         1 TEMP              0 ****  ****    0 ROOT
