@<TRIPOS>MOLECULE
OFT
   49    52     1     0     0
SMALL
abcg2


@<TRIPOS>ATOM
      1 C1          -4.3430     2.6430    -0.1690 ca         1 OFT      -0.016000
      2 C2          -3.7150     1.4050    -0.1030 ca         1 OFT      -0.220900
      3 C3          -4.4740     0.2530     0.1270 ca         1 OFT       0.030800
      4 C4          -5.8450     0.2900     0.2940 ca         1 OFT      -0.144000
      5 C5          -6.4580     1.5360     0.2250 ca         1 OFT      -0.060000
      6 C6          -5.7230     2.6960    -0.0020 ca         1 OFT      -0.151000
      7 C7          -2.3320     0.9530    -0.2260 cc         1 OFT       0.443200
      8 C8          -2.3420    -0.5190    -0.0460 cc         1 OFT       0.082300
      9 N9          -3.6400    -0.8470     0.1510 na         1 OFT      -0.276700
     10 C10         -1.3350    -1.4550    -0.0400 cd         1 OFT      -0.238400
     11 C11          0.1050    -1.3950    -0.2110 ca         1 OFT      -0.079800
     12 C12          0.5850    -2.7120    -0.0360 ca         1 OFT       0.096600
     13 N13         -0.4730    -3.5460     0.2200 ns         1 OFT      -0.387100
     14 C14         -1.6590    -2.8660     0.2260 c          1 OFT       0.574200
     15 C15          1.0230    -0.4010    -0.5100 ca         1 OFT       0.028000
     16 C16          2.3730    -0.7300    -0.5980 ca         1 OFT      -0.330500
     17 C17          2.8290    -2.0320    -0.4200 ca         1 OFT       0.015000
     18 C18          1.9230    -3.0430    -0.1340 ca         1 OFT      -0.173000
     19 O19         -2.7550    -3.3810     0.4250 o          1 OFT      -0.579000
     20 N20         -1.2480     1.5910    -0.4440 n2         1 OFT      -0.282700
     21 O21         -1.4240     2.9120    -0.5720 oh         1 OFT      -0.490000
     22 S22          3.5320     0.5670    -0.9290 sy         1 OFT       1.191600
     23 O23          4.7070    -0.0620    -1.5170 o          1 OFT      -0.546500
     24 O24          2.8340     1.6100    -1.6680 o          1 OFT      -0.546500
     25 N25          3.9890     1.2150     0.5010 n3         1 OFT      -0.784500
     26 C26          4.8720     0.4410     1.3730 c3         1 OFT       0.227300
     27 C27          6.3220     0.8800     1.2680 c3         1 OFT      -0.114100
     28 C28          3.3080     2.3730     1.0730 c3         1 OFT       0.227300
     29 C29          2.1330     2.0430     1.9780 c3         1 OFT      -0.114100
     30 H1          -3.7890     3.5510    -0.3460 ha         1 OFT       0.134000
     31 H4          -6.4180    -0.6100     0.4700 ha         1 OFT       0.129000
     32 H5          -7.5310     1.6020     0.3500 ha         1 OFT       0.118000
     33 H6          -6.2290     3.6500    -0.0500 ha         1 OFT       0.121000
     34 HN9         -3.9250    -1.8040     0.3140 hn         1 OFT       0.397000
     35 HN13        -0.4020    -4.5430     0.3630 hn         1 OFT       0.343500
     36 H15          0.6890     0.6070    -0.6840 ha         1 OFT       0.152000
     37 H17          3.8790    -2.2730    -0.5140 ha         1 OFT       0.136000
     38 H18          2.2580    -4.0630    -0.0020 ha         1 OFT       0.123000
     39 H10         -0.5470     3.2670    -0.7590 ho         1 OFT       0.485000
     40 H26          4.5140     0.5610     2.3970 h1         1 OFT       0.052700
     41 H12          4.7820    -0.6260     1.1610 h1         1 OFT       0.052700
     42 H27          6.7100     0.7090     0.2660 hc         1 OFT       0.044700
     43 H27A         6.4300     1.9400     1.5020 hc         1 OFT       0.044700
     44 H151         6.9360     0.3200     1.9740 hc         1 OFT       0.044700
     45 H28          4.0640     2.9250     1.6360 h1         1 OFT       0.052700
     46 H28A         2.9960     3.0340     0.2680 h1         1 OFT       0.052700
     47 H29          1.3260     1.5470     1.4390 hc         1 OFT       0.044700
     48 H29A         2.4280     1.3960     2.8050 hc         1 OFT       0.044700
     49 H29B         1.7310     2.9620     2.4040 hc         1 OFT       0.044700
@<TRIPOS>BOND
     1     1     2 ar  
     2     1     6 ar  
     3     1    30 1   
     4     2     3 ar  
     5     2     7 1   
     6     3     4 ar  
     7     3     9 1   
     8     4     5 ar  
     9     4    31 1   
    10     5     6 ar  
    11     5    32 1   
    12     6    33 1   
    13     7     8 1   
    14     7    20 2   
    15     8     9 1   
    16     8    10 2   
    17     9    34 1   
    18    10    11 1   
    19    10    14 1   
    20    11    12 ar  
    21    11    15 ar  
    22    12    13 1   
    23    12    18 ar  
    24    13    14 1   
    25    13    35 1   
    26    14    19 2   
    27    15    16 ar  
    28    15    36 1   
    29    16    17 ar  
    30    16    22 1   
    31    17    18 ar  
    32    17    37 1   
    33    18    38 1   
    34    20    21 1   
    35    21    39 1   
    36    22    23 2   
    37    22    24 2   
    38    22    25 1   
    39    25    26 1   
    40    25    28 1   
    41    26    27 1   
    42    26    40 1   
    43    26    41 1   
    44    27    42 1   
    45    27    43 1   
    46    27    44 1   
    47    28    29 1   
    48    28    45 1   
    49    28    46 1   
    50    29    47 1   
    51    29    48 1   
    52    29    49 1   
@<TRIPOS>SUBSTRUCTURE
     1 OFT         1 TEMP              0 ****  ****    0 ROOT
