@<TRIPOS>MOLECULE
OFU
   61    65     1     0     0
SMALL
abcg2


@<TRIPOS>ATOM
      1 C4          27.3890     0.9440     1.9530 c5         1 OFU      -0.096400
      2 C5          27.1050    -0.3530     1.2040 c5         1 OFU      -0.103400
      3 C6          28.0080    -1.3340     1.9120 c5         1 OFU       0.096600
      4 C7          26.2240     0.7280     4.2100 c3         1 OFU       0.170300
      5 N12         24.1480    -0.0830     5.7590 nb         1 OFU      -0.245000
      6 C13         25.3670    -0.3640     6.1620 ca         1 OFU       0.334300
      7 C15         15.9590     1.9190     5.5140 c6         1 OFU      -0.002100
      8 C17         17.9720     1.4540     6.9450 c6         1 OFU      -0.070400
      9 C20         17.4820    -0.0520     5.0120 cc         1 OFU      -0.035300
     10 C21         17.6960    -1.0750     4.0180 cc         1 OFU      -0.174000
     11 C22         16.8090    -0.9950     2.9580 cd         1 OFU       0.268000
     12 C24         17.8730    -1.0630     7.2580 c3         1 OFU      -0.080100
     13 C28         21.7910    -0.1570     6.0840 cc         1 OFU       0.490000
     14 C1          29.0760    -1.3090     4.1600 c3         1 OFU       0.080900
     15 C11         23.1510    -0.4910     6.5380 ca         1 OFU       0.151000
     16 C14         25.6130    -1.0630     7.3490 ca         1 OFU      -0.233000
     17 C16         16.4900     1.8020     6.9390 c6         1 OFU      -0.069400
     18 C18         18.2570     0.0720     6.3010 c6         1 OFU      -0.006000
     19 C19         16.4530     0.7650     4.7070 cd         1 OFU      -0.197300
     20 C25         19.7300     0.0180     6.0410 cd         1 OFU       0.495300
     21 C3          27.5130     0.5210     3.4200 c5         1 OFU       0.111300
     22 C31         18.7080    -2.0510     4.0740 cg         1 OFU       0.361000
     23 C33         25.9750     2.1980     4.4850 c3         1 OFU      -0.115100
     24 C9          24.5020    -1.4340     8.0650 ca         1 OFU       0.140900
     25 N10         23.2570    -1.1520     7.6700 nb         1 OFU      -0.118000
     26 N2          27.8780    -0.9580     3.3610 nx         1 OFU      -0.669000
     27 N27         21.5650     0.4750     4.9730 nd         1 OFU      -0.345300
     28 N29         20.6650    -0.4660     6.7840 nc         1 OFU      -0.669000
     29 N32         19.5420    -2.8500     4.1190 n1         1 OFU      -0.491000
     30 O26         20.2100     0.5920     4.9410 os         1 OFU      -0.067700
     31 O8          26.4140     0.0090     5.4380 os         1 OFU      -0.510300
     32 S23         15.7140     0.3220     3.1930 ss         1 OFU       0.179000
     33 H40         28.3310     1.3760     1.6150 hc         1 OFU       0.094700
     34 H39         26.6150     1.6940     1.8050 hc         1 OFU       0.094700
     35 H42         27.3410    -0.2860     0.1440 hc         1 OFU       0.096700
     36 H41         26.0580    -0.6470     1.2990 hc         1 OFU       0.096700
     37 H44         27.7470    -2.3840     1.8010 hx         1 OFU       0.101700
     38 H43         29.0500    -1.1900     1.6280 hx         1 OFU       0.101700
     39 H45         25.3820     0.2930     3.6610 h1         1 OFU       0.092700
     40 H49         16.2880     2.8610     5.0630 hc         1 OFU       0.058700
     41 H48         14.8670     1.9470     5.5200 hc         1 OFU       0.058700
     42 H53         18.3620     1.4460     7.9640 hc         1 OFU       0.056700
     43 H52         18.5160     2.2320     6.4020 hc         1 OFU       0.056700
     44 H54         18.4150    -0.9810     8.2000 hc         1 OFU       0.056700
     45 H55         16.8060    -1.0180     7.4720 hc         1 OFU       0.056700
     46 H56         18.0840    -2.0430     6.8300 hc         1 OFU       0.056700
     47 H34         28.8970    -1.0670     5.2030 hx         1 OFU       0.098033
     48 H35         29.2640    -2.3740     4.0560 hx         1 OFU       0.098033
     49 H36         29.9250    -0.7430     3.7860 hx         1 OFU       0.098033
     50 H47         26.6150    -1.2960     7.6790 ha         1 OFU       0.147000
     51 H50         16.3430     2.7470     7.4640 hc         1 OFU       0.054200
     52 H51         15.9180     1.0500     7.4860 hc         1 OFU       0.054200
     53 H38         28.3360     1.0290     3.9250 hx         1 OFU       0.113700
     54 H61         25.0620     2.3330     5.0620 hc         1 OFU       0.071033
     55 H59         26.8080     2.6350     5.0380 hc         1 OFU       0.071033
     56 H60         25.8570     2.7490     3.5540 hc         1 OFU       0.071033
     57 H46         24.6050    -1.9790     8.9950 h4         1 OFU       0.049100
     58 H58         16.1860    -1.5030     1.0810 hn         1 OFU       0.489000
     59 H57         17.4560    -2.4470     1.6920 hn         1 OFU       0.489000
     60 H37         27.1010    -1.5020     3.7410 hn         1 OFU       0.507000
     61 N30         16.7050    -1.8050     1.8900 nv         1 OFU      -1.070000
@<TRIPOS>BOND
     1     1     2 1   
     2     1    21 1   
     3     1    33 1   
     4     1    34 1   
     5     2     3 1   
     6     2    35 1   
     7     2    36 1   
     8     3    26 1   
     9     3    37 1   
    10     3    38 1   
    11     4    21 1   
    12     4    23 1   
    13     4    31 1   
    14     4    39 1   
    15     5     6 ar  
    16     5    15 ar  
    17     6    16 ar  
    18     6    31 1   
    19     7    17 1   
    20     7    19 1   
    21     7    40 1   
    22     7    41 1   
    23     8    17 1   
    24     8    18 1   
    25     8    42 1   
    26     8    43 1   
    27     9    10 1   
    28     9    18 1   
    29     9    19 2   
    30    10    11 2   
    31    10    22 1   
    32    11    32 1   
    33    11    61 1   
    34    12    18 1   
    35    12    44 1   
    36    12    45 1   
    37    12    46 1   
    38    13    15 1   
    39    13    27 2   
    40    13    28 1   
    41    14    26 1   
    42    14    47 1   
    43    14    48 1   
    44    14    49 1   
    45    15    25 ar  
    46    16    24 ar  
    47    16    50 1   
    48    17    51 1   
    49    17    52 1   
    50    18    20 1   
    51    19    32 1   
    52    20    28 2   
    53    20    30 1   
    54    21    26 1   
    55    21    53 1   
    56    22    29 3   
    57    23    54 1   
    58    23    55 1   
    59    23    56 1   
    60    24    25 ar  
    61    24    57 1   
    62    26    60 1   
    63    27    30 1   
    64    58    61 1   
    65    59    61 1   
@<TRIPOS>SUBSTRUCTURE
     1 OFU         1 TEMP              0 ****  ****    0 ROOT
