@<TRIPOS>MOLECULE
OFU
   61    65     1     0     0
SMALL
No Charge or Current Charge


@<TRIPOS>ATOM
      1 C4          27.7040     0.9330     1.9160 c5         1 OFU      -0.096400
      2 C5          27.0700    -0.3330     1.2790 c5         1 OFU      -0.103400
      3 C6          27.9740    -1.4270     1.8850 c5         1 OFU       0.096600
      4 C7          26.4680     0.8010     4.2160 c3         1 OFU       0.170300
      5 N12         24.1510    -0.0470     5.6670 nb         1 OFU      -0.245000
      6 C13         25.3850    -0.3720     6.1050 ca         1 OFU       0.334300
      7 C15         15.6910     1.8460     5.5960 c6         1 OFU      -0.002100
      8 C17         17.8210     1.4750     6.9240 c6         1 OFU      -0.070400
      9 C20         17.2740    -0.0820     4.9980 cc         1 OFU      -0.035300
     10 C21         17.4720    -1.1050     4.0040 cc         1 OFU      -0.174000
     11 C22         16.5430    -1.0710     2.9930 cd         1 OFU       0.268000
     12 C24         17.8190    -1.0620     7.2420 c3         1 OFU      -0.080100
     13 C28         21.7350    -0.0240     5.9600 cc         1 OFU       0.490000
     14 C1          29.4500    -1.3540     4.0140 c3         1 OFU       0.080900
     15 C11         23.0890    -0.3890     6.4420 ca         1 OFU       0.151000
     16 C14         25.5630    -1.0560     7.3110 ca         1 OFU      -0.233000
     17 C16         16.3030     1.7640     7.0100 c6         1 OFU      -0.069400
     18 C18         18.1540     0.1000     6.2470 c6         1 OFU      -0.006000
     19 C19         16.1760     0.7050     4.7300 cd         1 OFU      -0.197300
     20 C25         19.6510     0.1330     5.9260 cd         1 OFU       0.495300
     21 C3          27.7750     0.5330     3.4170 c5         1 OFU       0.111300
     22 C31         18.5210    -2.0680     4.0670 cg         1 OFU       0.361000
     23 C33         26.3420     2.2560     4.7140 c3         1 OFU      -0.115100
     24 C9          24.4190    -1.3750     8.0560 ca         1 OFU       0.140900
     25 N10         23.1860    -1.0440     7.6270 nb         1 OFU      -0.118000
     26 N2          28.1290    -0.9630     3.3450 nx         1 OFU      -0.669000
     27 N27         21.5200     0.6200     4.8220 nd         1 OFU      -0.345300
     28 N29         20.6190    -0.3380     6.6880 nc         1 OFU      -0.669000
     29 N32         19.3990    -2.8350     4.1180 n1         1 OFU      -0.491000
     30 O26         20.1150     0.7380     4.7950 os         1 OFU      -0.067700
     31 O8          26.5090    -0.0780     5.3640 os         1 OFU      -0.510300
     32 S23         15.3640     0.2390     3.2300 ss         1 OFU       0.179000
     33 H40         28.7070     1.1200     1.5160 hc         1 OFU       0.094700
     34 H39         27.1140     1.8400     1.7410 hc         1 OFU       0.094700
     35 H42         27.1140    -0.3230     0.1830 hc         1 OFU       0.096700
     36 H41         26.0210    -0.4700     1.5620 hc         1 OFU       0.096700
     37 H44         27.5580    -2.4380     1.8330 hx         1 OFU       0.101700
     38 H43         28.9620    -1.4410     1.4150 hx         1 OFU       0.101700
     39 H45         25.6110     0.5590     3.5720 h1         1 OFU       0.092700
     40 H49         15.9680     2.8030     5.1340 hc         1 OFU       0.058700
     41 H48         14.5940     1.8440     5.6670 hc         1 OFU       0.058700
     42 H53         18.2650     1.5190     7.9280 hc         1 OFU       0.056700
     43 H52         18.2920     2.2900     6.3560 hc         1 OFU       0.056700
     44 H54         18.3000    -0.9120     8.2160 hc         1 OFU       0.056700
     45 H55         16.7400    -1.1460     7.4190 hc         1 OFU       0.056700
     46 H56         18.1580    -2.0340     6.8640 hc         1 OFU       0.056700
     47 H34         29.4410    -1.0310     5.0580 hx         1 OFU       0.098033
     48 H35         29.5780    -2.4390     3.9710 hx         1 OFU       0.098033
     49 H36         30.2790    -0.8710     3.4930 hx         1 OFU       0.098033
     50 H47         26.5550    -1.3270     7.6580 ha         1 OFU       0.147000
     51 H50         16.1290     2.7080     7.5440 hc         1 OFU       0.054200
     52 H51         15.7960     0.9830     7.5940 hc         1 OFU       0.054200
     53 H38         28.5740     1.0610     3.9460 hx         1 OFU       0.113700
     54 H61         25.3950     2.4120     5.2430 hc         1 OFU       0.071033
     55 H59         27.1640     2.5040     5.3960 hc         1 OFU       0.071033
     56 H60         26.3730     2.9560     3.8710 hc         1 OFU       0.071033
     57 H46         24.4860    -1.9030     9.0060 h4         1 OFU       0.049100
     58 H58         15.8230    -1.7540     1.1540 hn         1 OFU       0.489000
     59 H57         17.2340    -2.5920     1.7350 hn         1 OFU       0.489000
     60 H37         27.3700    -1.4190     3.9060 hn         1 OFU       0.507000
     61 N30         16.4840    -1.9240     1.9110 nv         1 OFU      -1.070000
@<TRIPOS>BOND
     1     1     2 1   
     2     1    21 1   
     3     1    33 1   
     4     1    34 1   
     5     2     3 1   
     6     2    35 1   
     7     2    36 1   
     8     3    26 1   
     9     3    37 1   
    10     3    38 1   
    11     4    21 1   
    12     4    23 1   
    13     4    31 1   
    14     4    39 1   
    15     5     6 ar  
    16     5    15 ar  
    17     6    16 ar  
    18     6    31 1   
    19     7    17 1   
    20     7    19 1   
    21     7    40 1   
    22     7    41 1   
    23     8    17 1   
    24     8    18 1   
    25     8    42 1   
    26     8    43 1   
    27     9    10 1   
    28     9    18 1   
    29     9    19 2   
    30    10    11 2   
    31    10    22 1   
    32    11    32 1   
    33    11    61 1   
    34    12    18 1   
    35    12    44 1   
    36    12    45 1   
    37    12    46 1   
    38    13    15 1   
    39    13    27 2   
    40    13    28 1   
    41    14    26 1   
    42    14    47 1   
    43    14    48 1   
    44    14    49 1   
    45    15    25 ar  
    46    16    24 ar  
    47    16    50 1   
    48    17    51 1   
    49    17    52 1   
    50    18    20 1   
    51    19    32 1   
    52    20    28 2   
    53    20    30 1   
    54    21    26 1   
    55    21    53 1   
    56    22    29 3   
    57    23    54 1   
    58    23    55 1   
    59    23    56 1   
    60    24    25 ar  
    61    24    57 1   
    62    26    60 1   
    63    27    30 1   
    64    58    61 1   
    65    59    61 1   
@<TRIPOS>SUBSTRUCTURE
     1 OFU         1 TEMP              0 ****  ****    0 ROOT
