@<TRIPOS>MOLECULE
OFW
   73    78     1     0     0
SMALL
abcg2


@<TRIPOS>ATOM
      1 N1          14.4610    31.4170   111.1270 ns         1 OFW      -0.496900
      2 N3           6.3510    31.1330   112.9190 nb         1 OFW      -0.677000
      3 C4          13.3700    31.8490   111.7720 c          1 OFW       0.580100
      4 C5          15.6180    32.2390   110.8240 c3         1 OFW       0.117000
      5 C6          16.8600    31.8400   111.6470 c6         1 OFW       0.160200
      6 C7          18.0800    32.6740   111.1850 c6         1 OFW      -0.066200
      7 C8          17.8430    34.1730   111.4490 c6         1 OFW      -0.071150
      8 C10         18.8830    33.9710   113.7210 c6         1 OFW      -0.068400
      9 C13         17.9190    31.6670   113.9390 c6         1 OFW      -0.071150
     10 C15         16.4240    33.5990   113.4390 c6         1 OFW      -0.071150
     11 C17          7.8010    31.6840   111.1060 ca         1 OFW      -0.378500
     12 O2          12.4660    29.6140   111.2460 os         1 OFW      -0.464000
     13 O1           9.4270    33.7050   111.3830 o          1 OFW      -0.531000
     14 C1          12.3520    30.7370   112.1270 c6         1 OFW       0.097000
     15 C2          11.9870    29.8470   109.9170 c6         1 OFW       0.154600
     16 C18          7.3810    31.8200   112.4270 ca         1 OFW       0.450900
     17 C3          10.5550    30.3390   109.9150 c6         1 OFW       0.157800
     18 N2          17.0920    30.4140   111.3400 n8         1 OFW      -1.007200
     19 C16         12.7030    30.2210   113.5190 c3         1 OFW      -0.087100
     20 N4           4.6470    29.5550   112.6750 n          1 OFW      -0.412900
     21 C14         16.6630    32.1040   113.1650 c6         1 OFW      -0.066200
     22 C12         19.3450    32.2570   111.9570 c6         1 OFW      -0.071150
     23 C11         19.1350    32.4780   113.4630 c6         1 OFW      -0.061200
     24 C9          17.6300    34.4150   112.9520 c6         1 OFW      -0.061200
     25 N           10.5000    31.5540   110.7440 n3         1 OFW      -0.730500
     26 C           10.9270    31.2890   112.1250 c6         1 OFW       0.179800
     27 O            9.0730    32.7530   109.1050 o          1 OFW      -0.531000
     28 C19          5.7340    30.2770   112.1130 ca         1 OFW       0.518900
     29 C20          4.7630    28.7100   113.7880 c          1 OFW       0.577500
     30 C21          3.3930    28.1470   114.0870 c5         1 OFW      -0.161900
     31 C22          2.4760    28.6980   112.9960 c5         1 OFW      -0.161900
     32 C23          3.3480    29.5970   112.1530 c          1 OFW       0.577500
     33 C24          6.0820    30.0660   110.7840 ca         1 OFW      -0.165000
     34 C25          7.1400    30.7930   110.2660 ca         1 OFW       0.028000
     35 O3          13.1850    33.0100   112.1340 o          1 OFW      -0.599100
     36 O4           5.7970    28.4810   114.3670 o          1 OFW      -0.478500
     37 O5           3.0240    30.2570   111.1950 o          1 OFW      -0.478500
     38 H1          14.4870    30.4390   110.8820 hn         1 OFW       0.328500
     39 H2          15.8640    32.1220   109.7670 h1         1 OFW       0.066700
     40 H3          15.3270    33.2680   110.9970 h1         1 OFW       0.066700
     41 H4          18.2290    32.5050   110.1140 hc         1 OFW       0.053700
     42 H5          18.7170    34.7320   111.1040 hc         1 OFW       0.043950
     43 H6          16.9890    34.5450   110.8800 hc         1 OFW       0.043950
     44 H7          19.7480    34.5580   113.3990 hc         1 OFW       0.040200
     45 H8          18.7460    34.1480   114.7920 hc         1 OFW       0.040200
     46 H9          17.7580    31.8330   115.0070 hc         1 OFW       0.043950
     47 H10         18.1030    30.5980   113.8100 hc         1 OFW       0.043950
     48 H11         15.5070    33.9390   112.9570 hc         1 OFW       0.043950
     49 H12         16.2880    33.7470   114.5150 hc         1 OFW       0.043950
     50 H13         12.0550    28.8900   109.4030 h1         1 OFW       0.064700
     51 H14         12.6240    30.5730   109.4050 h1         1 OFW       0.064700
     52 H15          7.8780    32.5100   113.0960 h4         1 OFW       0.049100
     53 H16         10.2530    30.5780   108.8980 h1         1 OFW       0.065200
     54 H17          9.8870    29.5710   110.3220 h1         1 OFW       0.065200
     55 H18         18.0110    30.1240   111.6480 hn         1 OFW       0.395000
     56 H19         16.4420    29.8390   111.8680 hn         1 OFW       0.395000
     57 H21         12.6680    31.0340   114.2440 hc         1 OFW       0.055367
     58 H22         11.9930    29.4480   113.8150 hc         1 OFW       0.055367
     59 H23         13.7080    29.7970   113.5150 hc         1 OFW       0.055367
     60 H24         15.8020    31.5230   113.5090 hc         1 OFW       0.053700
     61 H25         19.6160    31.2170   111.7600 hc         1 OFW       0.043950
     62 H26         20.1860    32.8620   111.6070 hc         1 OFW       0.043950
     63 H27         20.0260    32.1550   114.0070 hc         1 OFW       0.051200
     64 H28         17.4480    35.4790   113.1260 hc         1 OFW       0.051200
     65 H29         10.9000    32.2110   112.6940 h1         1 OFW       0.078200
     66 H30         10.2680    30.5480   112.5900 h1         1 OFW       0.078200
     67 H31          3.1040    28.4640   115.0900 hc         1 OFW       0.090450
     68 H32          1.6430    29.2840   113.3840 hc         1 OFW       0.090450
     69 H33          5.5410    29.3530   110.1790 ha         1 OFW       0.141000
     70 H34          7.4430    30.6710   109.2360 ha         1 OFW       0.141000
     71 H20          3.4590    27.0590   114.0920 hc         1 OFW       0.090450
     72 H35          2.0620    27.9210   112.3530 hc         1 OFW       0.090450
     73 S            9.2260    32.5650   110.5250 sy         1 OFW       1.200600
@<TRIPOS>BOND
     1     1     3 1   
     2     1     4 1   
     3     1    38 1   
     4     2    16 ar  
     5     2    28 ar  
     6     3    14 1   
     7     3    35 2   
     8     4     5 1   
     9     4    39 1   
    10     4    40 1   
    11     5     6 1   
    12     5    18 1   
    13     5    21 1   
    14     6     7 1   
    15     6    22 1   
    16     6    41 1   
    17     7    24 1   
    18     7    42 1   
    19     7    43 1   
    20     8    23 1   
    21     8    24 1   
    22     8    44 1   
    23     8    45 1   
    24     9    21 1   
    25     9    23 1   
    26     9    46 1   
    27     9    47 1   
    28    10    21 1   
    29    10    24 1   
    30    10    48 1   
    31    10    49 1   
    32    11    16 ar  
    33    11    34 ar  
    34    11    73 1   
    35    12    14 1   
    36    12    15 1   
    37    13    73 2   
    38    14    19 1   
    39    14    26 1   
    40    15    17 1   
    41    15    50 1   
    42    15    51 1   
    43    16    52 1   
    44    17    25 1   
    45    17    53 1   
    46    17    54 1   
    47    18    55 1   
    48    18    56 1   
    49    19    57 1   
    50    19    58 1   
    51    19    59 1   
    52    20    28 1   
    53    20    29 1   
    54    20    32 1   
    55    21    60 1   
    56    22    23 1   
    57    22    61 1   
    58    22    62 1   
    59    23    63 1   
    60    24    64 1   
    61    25    26 1   
    62    25    73 1   
    63    26    65 1   
    64    26    66 1   
    65    27    73 2   
    66    28    33 ar  
    67    29    30 1   
    68    29    36 2   
    69    30    31 1   
    70    30    67 1   
    71    30    71 1   
    72    31    32 1   
    73    31    68 1   
    74    31    72 1   
    75    32    37 2   
    76    33    34 ar  
    77    33    69 1   
    78    34    70 1   
@<TRIPOS>SUBSTRUCTURE
     1 OFW         1 TEMP              0 ****  ****    0 ROOT
