@<TRIPOS>MOLECULE
OFW
   73    78     1     0     0
SMALL
No Charge or Current Charge


@<TRIPOS>ATOM
      1 N1          12.6920    32.3250   113.5010 ns         1 OFW      -0.496900
      2 N3           8.8770    30.9080   110.4760 nb         1 OFW      -0.677000
      3 C4          12.8660    31.8290   114.7780 c          1 OFW       0.580100
      4 C5          13.4600    33.4250   112.9050 c3         1 OFW       0.117000
      5 C6          14.2600    32.9650   111.6250 c6         1 OFW       0.160200
      6 C7          15.0370    34.1600   110.9570 c6         1 OFW      -0.066200
      7 C8          16.1350    34.7100   111.9270 c6         1 OFW      -0.071150
      8 C10         17.8460    33.1070   110.9620 c6         1 OFW      -0.068400
      9 C13         16.0320    31.3650   110.6330 c6         1 OFW      -0.071150
     10 C15         16.4090    32.3730   112.9190 c6         1 OFW      -0.071150
     11 C17         10.3930    29.2160   111.2710 ca         1 OFW      -0.378500
     12 O2          13.0870    29.5340   115.7740 os         1 OFW      -0.464000
     13 O1          12.8840    29.3800   110.4080 o          1 OFW      -0.531000
     14 C1          12.1700    30.4550   115.1170 c6         1 OFW       0.097000
     15 C2          14.1670    29.1060   114.9040 c6         1 OFW       0.154600
     16 C18         10.1300    30.4230   110.6200 ca         1 OFW       0.450900
     17 C3          13.6050    28.4360   113.6160 c6         1 OFW       0.157800
     18 N2          13.2490    32.4360   110.6770 n8         1 OFW      -1.007200
     19 C16         11.0690    30.7490   116.1760 c3         1 OFW      -0.087100
     20 N4           6.5710    30.7310   110.7840 n          1 OFW      -0.412900
     21 C14         15.3150    31.8370   111.9410 c6         1 OFW      -0.066200
     22 C12         15.7570    33.6940   109.6460 c6         1 OFW      -0.071150
     23 C11         16.7750    32.5630   109.9730 c6         1 OFW      -0.061200
     24 C9          17.1510    33.5800   112.2710 c6         1 OFW      -0.061200
     25 N           12.5760    29.2770   112.9260 n3         1 OFW      -0.730500
     26 C           11.5270    29.7420   113.8810 c6         1 OFW       0.179800
     27 O           12.0640    27.2100   111.5180 o          1 OFW      -0.531000
     28 C19          7.8570    30.1920   110.9860 ca         1 OFW       0.518900
     29 C20          6.2400    32.0160   111.1820 c          1 OFW       0.577500
     30 C21          4.9000    32.2850   110.4840 c5         1 OFW      -0.161900
     31 C22          4.3030    30.8520   110.3940 c5         1 OFW      -0.161900
     32 C23          5.5640    30.0060   110.1730 c          1 OFW       0.577500
     33 C24          8.0340    28.9580   111.6310 ca         1 OFW      -0.165000
     34 C25          9.3300    28.4510   111.7830 ca         1 OFW       0.028000
     35 O3          13.6090    32.3940   115.5740 o          1 OFW      -0.599100
     36 O4           6.7940    32.6430   112.0720 o          1 OFW      -0.478500
     37 O5           5.7330    29.0310   109.4580 o          1 OFW      -0.478500
     38 H1          12.1940    31.7310   112.8500 hn         1 OFW       0.328500
     39 H2          12.7570    34.2160   112.6130 h1         1 OFW       0.066700
     40 H3          14.1360    33.8530   113.6520 h1         1 OFW       0.066700
     41 H4          14.3340    34.9690   110.7150 hc         1 OFW       0.053700
     42 H5          16.6610    35.5520   111.4550 hc         1 OFW       0.043950
     43 H6          15.6910    35.1210   112.8420 hc         1 OFW       0.043950
     44 H7          18.3990    33.9380   110.5030 hc         1 OFW       0.040200
     45 H8          18.5870    32.3280   111.1860 hc         1 OFW       0.040200
     46 H9          16.7470    30.5640   110.8670 hc         1 OFW       0.043950
     47 H10         15.3170    30.9240   109.9250 hc         1 OFW       0.043950
     48 H11         15.9740    32.6630   113.8830 hc         1 OFW       0.043950
     49 H12         17.1280    31.5740   113.1490 hc         1 OFW       0.043950
     50 H13         14.8040    28.3930   115.4460 h1         1 OFW       0.064700
     51 H14         14.7890    29.9710   114.6350 h1         1 OFW       0.064700
     52 H15         10.9270    31.0330   110.1970 h4         1 OFW       0.049100
     53 H16         14.4480    28.2300   112.9400 h1         1 OFW       0.065200
     54 H17         13.1750    27.4640   113.8980 h1         1 OFW       0.065200
     55 H18         13.4680    32.8020   109.7480 hn         1 OFW       0.395000
     56 H19         13.4080    31.4240   110.5800 hn         1 OFW       0.395000
     57 H21         10.3130    31.4400   115.7820 hc         1 OFW       0.055367
     58 H22         10.5520    29.8320   116.4830 hc         1 OFW       0.055367
     59 H23         11.4950    31.2060   117.0770 hc         1 OFW       0.055367
     60 H24         14.8150    30.9750   112.3990 hc         1 OFW       0.053700
     61 H25         15.0340    33.3500   108.8940 hc         1 OFW       0.043950
     62 H26         16.2800    34.5440   109.1850 hc         1 OFW       0.043950
     63 H27         17.2660    32.2290   109.0490 hc         1 OFW       0.051200
     64 H28         17.9080    33.9660   112.9680 hc         1 OFW       0.051200
     65 H29         10.8210    30.4420   113.4130 h1         1 OFW       0.078200
     66 H30         10.9350    28.8840   114.2340 h1         1 OFW       0.078200
     67 H31          5.1150    32.6340   109.4670 hc         1 OFW       0.090450
     68 H32          3.5530    30.6840   109.6130 hc         1 OFW       0.090450
     69 H33          7.1790    28.4080   112.0120 ha         1 OFW       0.141000
     70 H34          9.4980    27.4980   112.2840 ha         1 OFW       0.141000
     71 H20          4.2990    33.0290   111.0170 hc         1 OFW       0.090450
     72 H35          3.8870    30.5860   111.3720 hc         1 OFW       0.090450
     73 S           12.0790    28.6720   111.4070 sy         1 OFW       1.200600
@<TRIPOS>BOND
     1     1     3 1   
     2     1     4 1   
     3     1    38 1   
     4     2    16 ar  
     5     2    28 ar  
     6     3    14 1   
     7     3    35 2   
     8     4     5 1   
     9     4    39 1   
    10     4    40 1   
    11     5     6 1   
    12     5    18 1   
    13     5    21 1   
    14     6     7 1   
    15     6    22 1   
    16     6    41 1   
    17     7    24 1   
    18     7    42 1   
    19     7    43 1   
    20     8    23 1   
    21     8    24 1   
    22     8    44 1   
    23     8    45 1   
    24     9    21 1   
    25     9    23 1   
    26     9    46 1   
    27     9    47 1   
    28    10    21 1   
    29    10    24 1   
    30    10    48 1   
    31    10    49 1   
    32    11    16 ar  
    33    11    34 ar  
    34    11    73 1   
    35    12    14 1   
    36    12    15 1   
    37    13    73 2   
    38    14    19 1   
    39    14    26 1   
    40    15    17 1   
    41    15    50 1   
    42    15    51 1   
    43    16    52 1   
    44    17    25 1   
    45    17    53 1   
    46    17    54 1   
    47    18    55 1   
    48    18    56 1   
    49    19    57 1   
    50    19    58 1   
    51    19    59 1   
    52    20    28 1   
    53    20    29 1   
    54    20    32 1   
    55    21    60 1   
    56    22    23 1   
    57    22    61 1   
    58    22    62 1   
    59    23    63 1   
    60    24    64 1   
    61    25    26 1   
    62    25    73 1   
    63    26    65 1   
    64    26    66 1   
    65    27    73 2   
    66    28    33 ar  
    67    29    30 1   
    68    29    36 2   
    69    30    31 1   
    70    30    67 1   
    71    30    71 1   
    72    31    32 1   
    73    31    68 1   
    74    31    72 1   
    75    32    37 2   
    76    33    34 ar  
    77    33    69 1   
    78    34    70 1   
@<TRIPOS>SUBSTRUCTURE
     1 OFW         1 TEMP              0 ****  ****    0 ROOT
