@<TRIPOS>MOLECULE
OFX
   49    52     1     0     0
SMALL
No Charge or Current Charge


@<TRIPOS>ATOM
      1 N1           9.6500     0.2730    22.7330 n          1 OFX      -0.227400
      2 N3          12.1570     2.2470    22.1870 na         1 OFX       0.000800
      3 C4          10.0750    -2.1630    22.9090 ca         1 OFX      -0.059000
      4 C5           9.5530    -0.9730    23.4560 ca         1 OFX      -0.143000
      5 C6           8.6990    -1.0660    24.5730 ca         1 OFX      -0.059000
      6 C7           8.4690    -2.3050    25.1960 ca         1 OFX      -0.187500
      7 C8          10.0680     1.4780    23.4920 c3         1 OFX       0.172300
      8 C10         12.5510     1.7080    24.2670 cc         1 OFX      -0.217000
      9 C13          8.6130    -0.7040    20.6250 c3         1 OFX       0.015600
     10 C15          4.5430     1.2680    18.8590 ca         1 OFX      -0.026000
     11 C17          4.5960     1.2850    21.3170 ca         1 OFX      -0.076000
     12 O            9.6810     1.4520    20.7470 o          1 OFX      -0.599100
     13 C12          9.3720     0.4230    21.3460 c          1 OFX       0.584100
     14 N4           7.5970    -0.2030    19.6900 na         1 OFX       0.062600
     15 C19          6.4210     0.3730    20.0520 ca         1 OFX      -0.061200
     16 C18          5.8640     0.6660    21.3060 ca         1 OFX      -0.114000
     17 C16          3.9390     1.5840    20.0980 ca         1 OFX      -0.140000
     18 C14          5.8040     0.6530    18.8730 ca         1 OFX       0.016400
     19 N6           6.5960     0.2460    17.8010 nc         1 OFX      -0.215400
     20 N5           7.7070    -0.2890    18.3170 nd         1 OFX      -0.151400
     21 C9          11.5400     1.7890    23.3590 cd         1 OFX      -0.180300
     22 N2          13.5300     2.4530    22.3530 nd         1 OFX      -0.509800
     23 C11         13.7200     2.1180    23.6130 cc         1 OFX       0.231900
     24 C3           9.8440    -3.3990    23.5350 ca         1 OFX      -0.187500
     25 C2           9.0470    -3.4860    24.6920 ca         1 OFX       0.346000
     26 N            8.8130    -4.7370    25.3200 nh         1 OFX      -0.824400
     27 C1           7.5720    -4.9980    26.0890 c3         1 OFX       0.211600
     28 C            9.8000    -5.8400    25.2390 c3         1 OFX       0.211600
     29 H1          11.6900     2.4100    21.2930 hn         1 OFX       0.393000
     30 H2          10.6890    -2.1310    22.0120 ha         1 OFX       0.123000
     31 H3           8.2050    -0.1800    24.9650 ha         1 OFX       0.123000
     32 H4           7.8320    -2.3380    26.0740 ha         1 OFX       0.120500
     33 H5           9.4800     2.3430    23.1560 h1         1 OFX       0.076200
     34 H6           9.8420     1.3390    24.5570 h1         1 OFX       0.076200
     35 H7          12.4890     1.3900    25.3030 ha         1 OFX       0.141000
     36 H8           8.1040    -1.3300    21.3640 h1         1 OFX       0.093200
     37 H9           9.3430    -1.3210    20.0880 h1         1 OFX       0.093200
     38 H11          4.1220     1.5320    22.2640 ha         1 OFX       0.115000
     39 H12          6.3810     0.4290    22.2330 ha         1 OFX       0.121000
     40 H13          2.9620     2.0610    20.1140 ha         1 OFX       0.118000
     41 H14         14.7170     2.1800    24.0290 h4         1 OFX       0.035100
     42 H15         10.2770    -4.2950    23.1010 ha         1 OFX       0.120500
     43 H16          7.3550    -6.0740    26.1280 h1         1 OFX       0.040033
     44 H17          7.6700    -4.6260    27.1180 h1         1 OFX       0.040033
     45 H18          6.7130    -4.5050    25.6150 h1         1 OFX       0.040033
     46 H19          9.7020    -6.5170    26.0990 h1         1 OFX       0.040033
     47 H20          9.6540    -6.4210    24.3190 h1         1 OFX       0.040033
     48 H21         10.8250    -5.4430    25.2480 h1         1 OFX       0.040033
     49 H10          4.0450     1.4940    17.9190 ha         1 OFX       0.134000
@<TRIPOS>BOND
     1     1     4 1   
     2     1     7 1   
     3     1    13 1   
     4     2    21 1   
     5     2    22 1   
     6     2    29 1   
     7     3     4 ar  
     8     3    24 ar  
     9     3    30 1   
    10     4     5 ar  
    11     5     6 ar  
    12     5    31 1   
    13     6    25 ar  
    14     6    32 1   
    15     7    21 1   
    16     7    33 1   
    17     7    34 1   
    18     8    21 2   
    19     8    23 1   
    20     8    35 1   
    21     9    13 1   
    22     9    14 1   
    23     9    36 1   
    24     9    37 1   
    25    10    17 ar  
    26    10    18 ar  
    27    10    49 1   
    28    11    16 ar  
    29    11    17 ar  
    30    11    38 1   
    31    12    13 2   
    32    14    15 1   
    33    14    20 1   
    34    15    16 ar  
    35    15    18 ar  
    36    16    39 1   
    37    17    40 1   
    38    18    19 1   
    39    19    20 2   
    40    22    23 2   
    41    23    41 1   
    42    24    25 ar  
    43    24    42 1   
    44    25    26 1   
    45    26    27 1   
    46    26    28 1   
    47    27    43 1   
    48    27    44 1   
    49    27    45 1   
    50    28    46 1   
    51    28    47 1   
    52    28    48 1   
@<TRIPOS>SUBSTRUCTURE
     1 OFX         1 TEMP              0 ****  ****    0 ROOT
