@<TRIPOS>MOLECULE
OFX
   49    52     1     0     0
SMALL
abcg2


@<TRIPOS>ATOM
      1 N1           9.3560     0.3480    23.0870 n          1 OFX      -0.227400
      2 N3          11.9080     1.9010    22.1300 na         1 OFX       0.000800
      3 C4          10.2330    -1.9320    23.2990 ca         1 OFX      -0.059000
      4 C5           9.3290    -0.9510    23.6910 ca         1 OFX      -0.143000
      5 C6           8.4090    -1.2420    24.6940 ca         1 OFX      -0.059000
      6 C7           8.3820    -2.4910    25.2900 ca         1 OFX      -0.187500
      7 C8          10.0970     1.4220    23.7730 c3         1 OFX       0.172300
      8 C10         12.6950     1.1550    24.0270 cc         1 OFX      -0.217000
      9 C13          8.1180    -0.5670    21.1880 c3         1 OFX       0.015600
     10 C15          4.8230     1.5610    18.2760 ca         1 OFX      -0.026000
     11 C17          4.1830     1.6880    20.6270 ca         1 OFX      -0.076000
     12 O            9.0630     1.6470    21.2510 o          1 OFX      -0.599100
     13 C12          8.8910     0.5830    21.8420 c          1 OFX       0.584100
     14 N4           7.3600    -0.1030    20.0560 na         1 OFX       0.062600
     15 C19          6.1860     0.5860    20.0470 ca         1 OFX      -0.061200
     16 C18          5.3020     0.9960    21.0490 ca         1 OFX      -0.114000
     17 C16          3.9450     1.9670    19.2610 ca         1 OFX      -0.140000
     18 C14          5.9640     0.8600    18.6870 ca         1 OFX       0.016400
     19 N6           7.0130     0.3310    17.9700 nc         1 OFX      -0.215400
     20 N5           7.8350    -0.2280    18.7980 nd         1 OFX      -0.151400
     21 C9          11.5300     1.4860    23.3620 cd         1 OFX      -0.180300
     22 N2          13.2410     1.8560    21.9440 nd         1 OFX      -0.509800
     23 C11         13.7250     1.4060    23.1010 cc         1 OFX       0.231900
     24 C3          10.2140    -3.1890    23.8810 ca         1 OFX      -0.187500
     25 C2           9.2920    -3.5020    24.9040 ca         1 OFX       0.346000
     26 N            9.2820    -4.7370    25.5030 nh         1 OFX      -0.824400
     27 C1           8.2020    -5.0870    26.4100 c3         1 OFX       0.211600
     28 C           10.0800    -5.8140    24.9430 c3         1 OFX       0.211600
     29 H1          11.2860     2.1840    21.3860 hn         1 OFX       0.393000
     30 H2          10.9520    -1.7120    22.5200 ha         1 OFX       0.123000
     31 H3           7.6980    -0.4840    25.0000 ha         1 OFX       0.123000
     32 H4           7.6450    -2.6830    26.0540 ha         1 OFX       0.120500
     33 H5           9.5940     2.3650    23.5620 h1         1 OFX       0.076200
     34 H6          10.0350     1.2280    24.8400 h1         1 OFX       0.076200
     35 H7          12.7780     0.7850    25.0350 ha         1 OFX       0.141000
     36 H8           7.4470    -1.0430    21.9010 h1         1 OFX       0.093200
     37 H9           8.8190    -1.3210    20.8350 h1         1 OFX       0.093200
     38 H11          3.4660     2.0300    21.3620 ha         1 OFX       0.115000
     39 H12          5.4850     0.7870    22.0940 ha         1 OFX       0.121000
     40 H13          3.0520     2.5130    18.9880 ha         1 OFX       0.118000
     41 H14         14.7900     1.2790    23.2270 h4         1 OFX       0.035100
     42 H15         10.9220    -3.9280    23.5390 ha         1 OFX       0.120500
     43 H16          8.3870    -6.0810    26.8090 h1         1 OFX       0.040033
     44 H17          8.1540    -4.3920    27.2510 h1         1 OFX       0.040033
     45 H18          7.2240    -5.0880    25.9130 h1         1 OFX       0.040033
     46 H19          9.9630    -6.6980    25.5630 h1         1 OFX       0.040033
     47 H20          9.7780    -6.0640    23.9180 h1         1 OFX       0.040033
     48 H21         11.1400    -5.5510    24.9280 h1         1 OFX       0.040033
     49 H10          4.6440     1.7730    17.2300 ha         1 OFX       0.134000
@<TRIPOS>BOND
     1     1     4 1   
     2     1     7 1   
     3     1    13 1   
     4     2    21 1   
     5     2    22 1   
     6     2    29 1   
     7     3     4 ar  
     8     3    24 ar  
     9     3    30 1   
    10     4     5 ar  
    11     5     6 ar  
    12     5    31 1   
    13     6    25 ar  
    14     6    32 1   
    15     7    21 1   
    16     7    33 1   
    17     7    34 1   
    18     8    21 2   
    19     8    23 1   
    20     8    35 1   
    21     9    13 1   
    22     9    14 1   
    23     9    36 1   
    24     9    37 1   
    25    10    17 ar  
    26    10    18 ar  
    27    10    49 1   
    28    11    16 ar  
    29    11    17 ar  
    30    11    38 1   
    31    12    13 2   
    32    14    15 1   
    33    14    20 1   
    34    15    16 ar  
    35    15    18 ar  
    36    16    39 1   
    37    17    40 1   
    38    18    19 1   
    39    19    20 2   
    40    22    23 2   
    41    23    41 1   
    42    24    25 ar  
    43    24    42 1   
    44    25    26 1   
    45    26    27 1   
    46    26    28 1   
    47    27    43 1   
    48    27    44 1   
    49    27    45 1   
    50    28    46 1   
    51    28    47 1   
    52    28    48 1   
@<TRIPOS>SUBSTRUCTURE
     1 OFX         1 TEMP              0 ****  ****    0 ROOT
