@<TRIPOS>MOLECULE
OFZ
   42    44     1     0     0
SMALL
abcg2


@<TRIPOS>ATOM
      1 C6          -3.8610     0.3380    -1.0570 c6         1 OFZ      -0.068400
      2 C5          -3.5740     0.9860     0.3010 c6         1 OFZ      -0.059700
      3 C8          -2.4490    -1.6210    -0.4190 c6         1 OFZ      -0.068650
      4 C13          6.0090     1.2450    -0.1510 c3         1 OFZ      -0.107100
      5 C9          -1.4220     0.3450    -1.5830 c6         1 OFZ      -0.068650
      6 C10         -1.1240     0.9940    -0.2290 c6         1 OFZ      -0.051700
      7 C12          5.0660     0.0710    -0.3410 c3         1 OFZ       0.218800
      8 C2          -0.8900    -0.0820     0.8430 c6         1 OFZ      -0.062700
      9 C4          -3.3380    -0.1080     1.3470 c6         1 OFZ      -0.068650
     10 C3          -2.1410    -0.9700     0.9340 c6         1 OFZ      -0.051700
     11 N            3.0200    -1.7620    -0.2370 n2         1 OFZ      -0.903100
     12 C            2.7640    -0.5690     0.1600 c2         1 OFZ       0.806100
     13 C1           0.3720    -0.9120     0.6270 c3         1 OFZ       0.219800
     14 C11         -2.3200     1.8560     0.1880 c6         1 OFZ      -0.068650
     15 C7          -2.6720    -0.5330    -1.4740 c6         1 OFZ      -0.059700
     16 N1           1.5430    -0.0720     0.5440 nu         1 OFZ      -0.958400
     17 N2           3.7670     0.3690     0.2230 nu         1 OFZ      -0.896400
     18 H1          -4.7720    -0.2660    -1.0050 hc         1 OFZ       0.039700
     19 H2          -4.0390     1.1120    -1.8110 hc         1 OFZ       0.039700
     20 H3          -4.4260     1.6030     0.6010 hc         1 OFZ       0.049200
     21 H4          -1.6470    -2.2970    -0.7260 hc         1 OFZ       0.040575
     22 H5          -3.3480    -2.2400    -0.3280 hc         1 OFZ       0.040575
     23 H6           5.6460     2.1370    -0.6640 hc         1 OFZ       0.038367
     24 H7           6.1340     1.4880     0.9050 hc         1 OFZ       0.038367
     25 H8           6.9900     1.0080    -0.5610 hc         1 OFZ       0.038367
     26 H9          -1.5810     1.1240    -2.3350 hc         1 OFZ       0.040575
     27 H10         -0.5670    -0.2420    -1.9320 hc         1 OFZ       0.040575
     28 H11         -0.2370     1.6290    -0.3140 hc         1 OFZ       0.050700
     29 H12          4.9970    -0.1800    -1.4060 h1         1 OFZ       0.050200
     30 H13          5.4690    -0.8130     0.1560 h1         1 OFZ       0.050200
     31 H14         -0.7740     0.4270     1.8110 hc         1 OFZ       0.043700
     32 H15         -3.1620     0.3390     2.3300 hc         1 OFZ       0.040575
     33 H16         -4.2310    -0.7360     1.4410 hc         1 OFZ       0.040575
     34 H17         -1.9780    -1.7460     1.6900 hc         1 OFZ       0.050700
     35 H18          2.2180    -2.3700    -0.1290 hn         1 OFZ       0.379400
     36 H19          0.4510    -1.6480     1.4400 h1         1 OFZ       0.038700
     37 H20          0.2990    -1.4850    -0.3000 h1         1 OFZ       0.038700
     38 H21         -2.4800     2.6500    -0.5490 hc         1 OFZ       0.040575
     39 H22         -2.1130     2.3490     1.1430 hc         1 OFZ       0.040575
     40 H23         -2.8800    -0.9980    -2.4420 hc         1 OFZ       0.049200
     41 H24          1.5690     0.7060     1.1860 hn         1 OFZ       0.470000
     42 H25          3.4620     1.3220     0.0890 hn         1 OFZ       0.460000
@<TRIPOS>BOND
     1     1     2 1   
     2     1    15 1   
     3     1    18 1   
     4     1    19 1   
     5     2     9 1   
     6     2    14 1   
     7     2    20 1   
     8     3    10 1   
     9     3    15 1   
    10     3    21 1   
    11     3    22 1   
    12     4     7 1   
    13     4    23 1   
    14     4    24 1   
    15     4    25 1   
    16     5     6 1   
    17     5    15 1   
    18     5    26 1   
    19     5    27 1   
    20     6     8 1   
    21     6    14 1   
    22     6    28 1   
    23     7    17 1   
    24     7    29 1   
    25     7    30 1   
    26     8    10 1   
    27     8    13 1   
    28     8    31 1   
    29     9    10 1   
    30     9    32 1   
    31     9    33 1   
    32    10    34 1   
    33    11    12 2   
    34    11    35 1   
    35    12    16 1   
    36    12    17 1   
    37    13    16 1   
    38    13    36 1   
    39    13    37 1   
    40    14    38 1   
    41    14    39 1   
    42    15    40 1   
    43    16    41 1   
    44    17    42 1   
@<TRIPOS>SUBSTRUCTURE
     1 OFZ         1 TEMP              0 ****  ****    0 ROOT
