@<TRIPOS>MOLECULE
OFZ
   42    44     1     0     0
SMALL
No Charge or Current Charge


@<TRIPOS>ATOM
      1 C6          -4.0130     0.3960    -0.9270 c6         1 OFZ      -0.068400
      2 C5          -3.5550     1.0530     0.4080 c6         1 OFZ      -0.059700
      3 C8          -2.5770    -1.6350    -0.4240 c6         1 OFZ      -0.068650
      4 C13          5.9870     1.4000     0.0120 c3         1 OFZ      -0.107100
      5 C9          -1.6050     0.3260    -1.7220 c6         1 OFZ      -0.068650
      6 C10         -1.1320     0.9750    -0.3840 c6         1 OFZ      -0.051700
      7 C12          5.2320     0.0650    -0.0890 c3         1 OFZ       0.218800
      8 C2          -0.8160    -0.1280     0.6860 c6         1 OFZ      -0.062700
      9 C4          -3.2440    -0.0610     1.4500 c6         1 OFZ      -0.068650
     10 C3          -2.1070    -0.9830     0.9140 c6         1 OFZ      -0.051700
     11 N            3.1380    -1.9120    -0.0850 n2         1 OFZ      -0.903100
     12 C            2.8910    -0.7020     0.1170 c2         1 OFZ       0.806100
     13 C1           0.4300    -1.0060     0.3450 c3         1 OFZ       0.219800
     14 C11         -2.2700     1.8950     0.1540 c6         1 OFZ      -0.068650
     15 C7          -2.8840    -0.5260    -1.4720 c6         1 OFZ      -0.059700
     16 N1           1.6760    -0.2250     0.3670 nu         1 OFZ      -0.958400
     17 N2           3.7980     0.2730     0.1450 nu         1 OFZ      -0.896400
     18 H1          -4.9330    -0.1840    -0.7680 hc         1 OFZ       0.039700
     19 H2          -4.2600     1.1710    -1.6650 hc         1 OFZ       0.039700
     20 H3          -4.3520     1.7040     0.7920 hc         1 OFZ       0.049200
     21 H4          -1.8160    -2.3260    -0.8100 hc         1 OFZ       0.040575
     22 H5          -3.4750    -2.2440    -0.2490 hc         1 OFZ       0.040575
     23 H6           5.6250     2.1110    -0.7400 hc         1 OFZ       0.038367
     24 H7           5.8610     1.8450     1.0060 hc         1 OFZ       0.038367
     25 H8           7.0590     1.2400    -0.1580 hc         1 OFZ       0.038367
     26 H9          -1.8150     1.1090    -2.4640 hc         1 OFZ       0.040575
     27 H10         -0.8110    -0.2940    -2.1590 hc         1 OFZ       0.040575
     28 H11         -0.2380     1.5860    -0.5700 hc         1 OFZ       0.050700
     29 H12          5.3950    -0.3670    -1.0860 h1         1 OFZ       0.050200
     30 H13          5.6390    -0.6350     0.6540 h1         1 OFZ       0.050200
     31 H14         -0.5690     0.3670     1.6370 hc         1 OFZ       0.043700
     32 H15         -2.9490     0.3880     2.4080 hc         1 OFZ       0.040575
     33 H16         -4.1480    -0.6530     1.6520 hc         1 OFZ       0.040575
     34 H17         -1.9050    -1.7700     1.6550 hc         1 OFZ       0.050700
     35 H18          2.2330    -2.3850    -0.0270 hn         1 OFZ       0.379400
     36 H19          0.4950    -1.8100     1.0920 h1         1 OFZ       0.038700
     37 H20          0.3000    -1.4780    -0.6370 h1         1 OFZ       0.038700
     38 H21         -2.4800     2.6980    -0.5660 hc         1 OFZ       0.040575
     39 H22         -1.9510     2.3890     1.0820 hc         1 OFZ       0.040575
     40 H23         -3.2090    -0.9880    -2.4140 hc         1 OFZ       0.049200
     41 H24          1.6840     0.6050     0.9460 hn         1 OFZ       0.470000
     42 H25          3.4200     1.1660    -0.1420 hn         1 OFZ       0.460000
@<TRIPOS>BOND
     1     1     2 1   
     2     1    15 1   
     3     1    18 1   
     4     1    19 1   
     5     2     9 1   
     6     2    14 1   
     7     2    20 1   
     8     3    10 1   
     9     3    15 1   
    10     3    21 1   
    11     3    22 1   
    12     4     7 1   
    13     4    23 1   
    14     4    24 1   
    15     4    25 1   
    16     5     6 1   
    17     5    15 1   
    18     5    26 1   
    19     5    27 1   
    20     6     8 1   
    21     6    14 1   
    22     6    28 1   
    23     7    17 1   
    24     7    29 1   
    25     7    30 1   
    26     8    10 1   
    27     8    13 1   
    28     8    31 1   
    29     9    10 1   
    30     9    32 1   
    31     9    33 1   
    32    10    34 1   
    33    11    12 2   
    34    11    35 1   
    35    12    16 1   
    36    12    17 1   
    37    13    16 1   
    38    13    36 1   
    39    13    37 1   
    40    14    38 1   
    41    14    39 1   
    42    15    40 1   
    43    16    41 1   
    44    17    42 1   
@<TRIPOS>SUBSTRUCTURE
     1 OFZ         1 TEMP              0 ****  ****    0 ROOT
