@<TRIPOS>MOLECULE
OG1
   47    50     1     0     0
SMALL
No Charge or Current Charge


@<TRIPOS>ATOM
      1 C1           5.5200     1.1530     0.6790 cc         1 OG1       0.158400
      2 C10          0.2560    -1.7270    -1.3820 ca         1 OG1      -0.067000
      3 C11         -0.6930    -0.7310    -1.0520 ca         1 OG1      -0.137600
      4 C12         -0.2900     0.6260    -1.1260 ca         1 OG1      -0.067000
      5 C13          1.0180     0.9650    -1.5130 ca         1 OG1      -0.123000
      6 C14         -2.0960    -1.1450    -0.6390 c          1 OG1       0.615700
      7 C15         -4.3320    -0.0970     0.0920 ca         1 OG1       0.003000
      8 C16         -5.1920    -1.1820    -0.1960 ca         1 OG1      -0.139000
      9 C17         -6.5470    -1.1540     0.1850 ca         1 OG1      -0.027000
     10 C18         -7.0540    -0.0300     0.8560 ca         1 OG1      -0.135000
     11 C19         -6.2160     1.0600     1.1360 ca         1 OG1      -0.071000
     12 C2           4.9490     0.2470    -0.1630 cd         1 OG1      -0.294600
     13 C20         -4.8540     1.0480     0.7550 ca         1 OG1      -0.179600
     14 C21         -3.9990     2.2580     1.0840 c          1 OG1       0.724600
     15 C22         -7.4090    -2.2670    -0.1150 cg         1 OG1       0.358000
     16 C3           5.1780    -1.1970     0.0310 c          1 OG1       0.624600
     17 C4           6.4970    -0.4680     1.8680 cd         1 OG1       0.720800
     18 C5           4.1830     0.9500    -1.1330 cd         1 OG1      -0.055300
     19 C6           4.3040     2.2950    -0.8670 cc         1 OG1      -0.192000
     20 C7           3.3690     0.3490    -2.2540 c3         1 OG1       0.040200
     21 C8           1.9540    -0.0340    -1.8350 ca         1 OG1      -0.071300
     22 C9           1.5620    -1.3820    -1.7680 ca         1 OG1      -0.123000
     23 N1           6.3260     0.8250     1.7400 nc         1 OG1      -0.714100
     24 N2           5.9820    -1.4410     1.0960 ns         1 OG1      -0.455400
     25 N3           5.1320     2.4100     0.2560 na         1 OG1      -0.106000
     26 N4           7.2730    -0.8390     2.8720 nv         1 OG1      -1.042200
     27 N5          -2.9580    -0.1160    -0.2850 ns         1 OG1      -0.162000
     28 N6          -8.1030    -3.1740    -0.3670 n1         1 OG1      -0.524000
     29 O1           4.7220    -2.0930    -0.6600 o          1 OG1      -0.555000
     30 O2          -2.4230    -2.3280    -0.6130 o          1 OG1      -0.635100
     31 O3          -4.2570     2.8860     2.1010 o          1 OG1      -0.701000
     32 O4          -3.1040     2.5730     0.3130 o          1 OG1      -0.701000
     33 H1          -0.0160    -2.7800    -1.3380 ha         1 OG1       0.136500
     34 H2          -0.9750     1.4370    -0.8910 ha         1 OG1       0.136500
     35 H3           1.3060     2.0130    -1.5630 ha         1 OG1       0.113500
     36 H4          -4.8260    -2.0540    -0.7300 ha         1 OG1       0.145000
     37 H5          -8.0990     0.0060     1.1560 ha         1 OG1       0.104000
     38 H6          -6.6320     1.9250     1.6490 ha         1 OG1       0.135000
     39 H7           3.8770     3.1560    -1.3680 h4         1 OG1       0.153000
     40 H8           3.3130     1.0660    -3.0820 hc         1 OG1       0.054200
     41 H9           3.8940    -0.5190    -2.6690 hc         1 OG1       0.054200
     42 H10          2.2700    -2.1700    -2.0150 ha         1 OG1       0.113500
     43 H11          6.1700    -2.4060     1.3040 hn         1 OG1       0.316500
     44 H12          5.4130     3.2750     0.7020 hn         1 OG1       0.356000
     45 H13          7.7870    -1.7040     2.7600 hn         1 OG1       0.489000
     46 H14          7.7880    -0.0790     3.2980 hn         1 OG1       0.489000
     47 H15         -2.5380     0.8050    -0.2960 hn         1 OG1       0.236000
@<TRIPOS>BOND
     1     1    12 2   
     2     1    23 1   
     3     1    25 1   
     4     2     3 ar  
     5     2    22 ar  
     6     2    33 1   
     7     3     4 ar  
     8     3     6 1   
     9     4     5 ar  
    10     4    34 1   
    11     5    21 ar  
    12     5    35 1   
    13     6    27 1   
    14     6    30 2   
    15     7     8 ar  
    16     7    13 ar  
    17     7    27 1   
    18     8     9 ar  
    19     8    36 1   
    20     9    10 ar  
    21     9    15 1   
    22    10    11 ar  
    23    10    37 1   
    24    11    13 ar  
    25    11    38 1   
    26    12    16 1   
    27    12    18 1   
    28    13    14 1   
    29    14    31 1   
    30    14    32 1   
    31    15    28 3   
    32    16    24 1   
    33    16    29 2   
    34    17    23 2   
    35    17    24 1   
    36    17    26 1   
    37    18    19 2   
    38    18    20 1   
    39    19    25 1   
    40    19    39 1   
    41    20    21 1   
    42    20    40 1   
    43    20    41 1   
    44    21    22 ar  
    45    22    42 1   
    46    24    43 1   
    47    25    44 1   
    48    26    45 1   
    49    26    46 1   
    50    27    47 1   
@<TRIPOS>SUBSTRUCTURE
     1 OG1         1 TEMP              0 ****  ****    0 ROOT
