@<TRIPOS>MOLECULE
OG1
   47    50     1     0     0
SMALL
abcg2


@<TRIPOS>ATOM
      1 C1           5.3770     0.9580     0.8120 cc         1 OG1       0.158400
      2 C10          0.3230    -1.4940    -1.1170 ca         1 OG1      -0.067000
      3 C11         -0.7120    -0.5600    -1.1280 ca         1 OG1      -0.137600
      4 C12         -0.4330     0.7400    -1.5470 ca         1 OG1      -0.067000
      5 C13          0.8510     1.0930    -1.9310 ca         1 OG1      -0.123000
      6 C14         -2.0770    -1.0160    -0.7280 c          1 OG1       0.615700
      7 C15         -4.2230    -0.1060     0.1060 ca         1 OG1       0.003000
      8 C16         -4.9770    -1.2800     0.0400 ca         1 OG1      -0.139000
      9 C17         -6.3090    -1.2690     0.4390 ca         1 OG1      -0.027000
     10 C18         -6.9180    -0.1110     0.9110 ca         1 OG1      -0.135000
     11 C19         -6.1620     1.0440     0.9750 ca         1 OG1      -0.071000
     12 C2           4.8610     0.1500    -0.2040 cd         1 OG1      -0.294600
     13 C20         -4.8280     1.0810     0.5860 ca         1 OG1      -0.179600
     14 C21         -4.0910     2.4170     0.7030 c          1 OG1       0.724600
     15 C22         -7.0610    -2.4810     0.3610 cg         1 OG1       0.358000
     16 C3           5.2230    -1.2250    -0.2070 c          1 OG1       0.624600
     17 C4           6.4750    -0.6810     1.8380 cd         1 OG1       0.720800
     18 C5           4.0890     0.9870    -1.0720 cd         1 OG1      -0.055300
     19 C6           4.1710     2.2440    -0.5480 cc         1 OG1      -0.192000
     20 C7           3.2920     0.5820    -2.2750 c3         1 OG1       0.040200
     21 C8           1.8910     0.1680    -1.9000 ca         1 OG1      -0.071300
     22 C9           1.6070    -1.1320    -1.4880 ca         1 OG1      -0.123000
     23 N1           6.1710     0.5880     1.8350 nc         1 OG1      -0.714100
     24 N2           6.0410    -1.5500     0.8800 ns         1 OG1      -0.455400
     25 N3           4.9490     2.2150     0.5900 na         1 OG1      -0.106000
     26 N4           7.2150    -1.1980     2.8370 nv         1 OG1      -1.042200
     27 N5          -2.8950    -0.0320    -0.2890 ns         1 OG1      -0.162000
     28 N6          -7.6740    -3.4550     0.2990 n1         1 OG1      -0.524000
     29 O1           4.9180    -2.0950    -1.0130 o          1 OG1      -0.555000
     30 O2          -2.3840    -2.1970    -0.7940 o          1 OG1      -0.635100
     31 O3          -4.7280     3.3710     1.1580 o          1 OG1      -0.701000
     32 O4          -2.8880     2.4470     0.3310 o          1 OG1      -0.701000
     33 H1           0.1250    -2.5120    -0.8090 ha         1 OG1       0.136500
     34 H2          -1.2120     1.4890    -1.6060 ha         1 OG1       0.136500
     35 H3           1.0440     2.1060    -2.2630 ha         1 OG1       0.113500
     36 H4          -4.5370    -2.1950    -0.3170 ha         1 OG1       0.145000
     37 H5          -7.9550    -0.1150     1.2180 ha         1 OG1       0.104000
     38 H6          -6.6160     1.9550     1.3380 ha         1 OG1       0.135000
     39 H7           3.7340     3.1670    -0.8910 h4         1 OG1       0.153000
     40 H8           3.2440     1.4180    -2.9760 hc         1 OG1       0.054200
     41 H9           3.7920    -0.2380    -2.7940 hc         1 OG1       0.054200
     42 H10          2.4010    -1.8670    -1.4580 ha         1 OG1       0.113500
     43 H11          6.3290    -2.5180     0.9390 hn         1 OG1       0.316500
     44 H12          5.1720     3.0120     1.1640 hn         1 OG1       0.356000
     45 H13          7.6700    -2.0880     2.7210 hn         1 OG1       0.489000
     46 H14          7.6910    -0.5430     3.4350 hn         1 OG1       0.489000
     47 H15         -2.5440     0.9360    -0.1480 hn         1 OG1       0.236000
@<TRIPOS>BOND
     1     1    12 2   
     2     1    23 1   
     3     1    25 1   
     4     2     3 ar  
     5     2    22 ar  
     6     2    33 1   
     7     3     4 ar  
     8     3     6 1   
     9     4     5 ar  
    10     4    34 1   
    11     5    21 ar  
    12     5    35 1   
    13     6    27 1   
    14     6    30 2   
    15     7     8 ar  
    16     7    13 ar  
    17     7    27 1   
    18     8     9 ar  
    19     8    36 1   
    20     9    10 ar  
    21     9    15 1   
    22    10    11 ar  
    23    10    37 1   
    24    11    13 ar  
    25    11    38 1   
    26    12    16 1   
    27    12    18 1   
    28    13    14 1   
    29    14    31 1   
    30    14    32 1   
    31    15    28 3   
    32    16    24 1   
    33    16    29 2   
    34    17    23 2   
    35    17    24 1   
    36    17    26 1   
    37    18    19 2   
    38    18    20 1   
    39    19    25 1   
    40    19    39 1   
    41    20    21 1   
    42    20    40 1   
    43    20    41 1   
    44    21    22 ar  
    45    22    42 1   
    46    24    43 1   
    47    25    44 1   
    48    26    45 1   
    49    26    46 1   
    50    27    47 1   
@<TRIPOS>SUBSTRUCTURE
     1 OG1         1 TEMP              0 ****  ****    0 ROOT
