@<TRIPOS>MOLECULE
OG2
   39    41     1     0     0
SMALL
bcc


@<TRIPOS>ATOM
      1 C1          -0.4120    -0.2080    -0.0010 c6         1 OG2       0.257200
      2 N1           1.0020    -0.5570    -0.0250 nu         1 OG2      -0.912200
      3 C2          -0.8420     0.4960     1.2990 c6         1 OG2      -0.082067
      4 N2           3.2710    -0.3840     0.0950 nu         1 OG2      -0.845200
      5 C3          -2.3500     0.7560     1.2860 c6         1 OG2      -0.057033
      6 C4          -3.0960    -0.5750     1.1930 c6         1 OG2      -0.070733
      7 C5          -2.6900    -1.2940    -0.0960 c6         1 OG2      -0.057033
      8 C6          -1.1800    -1.5350    -0.0930 c6         1 OG2      -0.082067
      9 C7          -3.0640    -0.4280    -1.3000 c6         1 OG2      -0.070733
     10 C8          -2.3160     0.9030    -1.2130 c6         1 OG2      -0.057033
     11 C9          -0.8070     0.6440    -1.2170 c6         1 OG2      -0.082067
     12 C10         -2.7040     1.6280     0.0780 c6         1 OG2      -0.070733
     13 N            2.0780     1.5810     0.0830 n2         1 OG2      -0.908100
     14 C            2.0740     0.2970     0.0510 c2         1 OG2       0.817100
     15 C11          4.5210     0.3380    -0.0040 c3         1 OG2       0.219800
     16 C12          5.6890    -0.6260     0.0990 c3         1 OG2      -0.107100
     17 H1           1.1980    -1.4980     0.2800 hn         1 OG2       0.414800
     18 H2          -0.5670    -0.1310     2.1540 hc         1 OG2       0.047533
     19 H3          -0.3130     1.4440     1.4300 hc         1 OG2       0.047533
     20 H4           3.2710    -1.2690    -0.3890 hn         1 OG2       0.401800
     21 H5          -2.6320     1.2710     2.2080 hc         1 OG2       0.052367
     22 H6          -2.8670    -1.2000     2.0620 hc         1 OG2       0.042200
     23 H7          -4.1770    -0.4060     1.2040 hc         1 OG2       0.042200
     24 H8          -3.2030    -2.2570    -0.1590 hc         1 OG2       0.052367
     25 H9          -0.8770    -2.0640    -1.0030 hc         1 OG2       0.047533
     26 H10         -0.9070    -2.1770     0.7530 hc         1 OG2       0.047533
     27 H11         -2.8100    -0.9430    -2.2320 hc         1 OG2       0.042200
     28 H12         -4.1450    -0.2550    -1.3190 hc         1 OG2       0.042200
     29 H13         -2.5700     1.5260    -2.0750 hc         1 OG2       0.052367
     30 H14         -0.2730     1.5970    -1.2240 hc         1 OG2       0.047533
     31 H15         -0.5100     0.1170    -2.1290 hc         1 OG2       0.047533
     32 H16         -3.7750     1.8510     0.0770 hc         1 OG2       0.042200
     33 H17         -2.1820     2.5890     0.1420 hc         1 OG2       0.042200
     34 H18          1.1430     1.9550     0.1480 hn         1 OG2       0.382400
     35 H19          4.5890     0.9080    -0.9380 h1         1 OG2       0.050200
     36 H20          4.5710     1.0680     0.8050 h1         1 OG2       0.050200
     37 H21          5.6700    -1.1720     1.0430 hc         1 OG2       0.037700
     38 H22          5.6780    -1.3550    -0.7140 hc         1 OG2       0.037700
     39 H23          6.6330    -0.0850     0.0430 hc         1 OG2       0.037700
@<TRIPOS>BOND
     1     1     2 1   
     2     1     3 1   
     3     1     8 1   
     4     1    11 1   
     5     2    14 1   
     6     2    17 1   
     7     3     5 1   
     8     3    18 1   
     9     3    19 1   
    10     4    14 1   
    11     4    15 1   
    12     4    20 1   
    13     5     6 1   
    14     5    12 1   
    15     5    21 1   
    16     6     7 1   
    17     6    22 1   
    18     6    23 1   
    19     7     8 1   
    20     7     9 1   
    21     7    24 1   
    22     8    25 1   
    23     8    26 1   
    24     9    10 1   
    25     9    27 1   
    26     9    28 1   
    27    10    11 1   
    28    10    12 1   
    29    10    29 1   
    30    11    30 1   
    31    11    31 1   
    32    12    32 1   
    33    12    33 1   
    34    13    14 2   
    35    13    34 1   
    36    15    16 1   
    37    15    35 1   
    38    15    36 1   
    39    16    37 1   
    40    16    38 1   
    41    16    39 1   
@<TRIPOS>SUBSTRUCTURE
     1 OG2         1 TEMP              0 ****  ****    0 ROOT
