@<TRIPOS>MOLECULE
OG2
   39    41     1     0     0
SMALL
No Charge or Current Charge


@<TRIPOS>ATOM
      1 C1          -0.3310    -0.2350     0.5060 c6         1 OG2       0.257200
      2 N1           1.0280    -0.4780     1.0030 nu         1 OG2      -0.967400
      3 C2          -1.0300     0.8810     1.3440 c6         1 OG2      -0.082067
      4 N2           2.9440    -0.1240     0.1300 nu         1 OG2      -0.900400
      5 C3          -2.4830     1.1030     0.8300 c6         1 OG2      -0.057033
      6 C4          -3.2870    -0.2220     0.9680 c6         1 OG2      -0.070733
      7 C5          -2.6050    -1.3390     0.1270 c6         1 OG2      -0.057033
      8 C6          -1.1510    -1.5550     0.6410 c6         1 OG2      -0.082067
      9 C7          -2.5650    -0.9090    -1.3680 c6         1 OG2      -0.070733
     10 C8          -1.7580     0.4140    -1.5120 c6         1 OG2      -0.057033
     11 C9          -0.3060     0.1920    -0.9970 c6         1 OG2      -0.082067
     12 C10         -2.4410     1.5290    -0.6670 c6         1 OG2      -0.070733
     13 N            2.3180     0.9600     1.9970 n2         1 OG2      -0.908100
     14 C            2.0160     0.3930     0.9310 c2         1 OG2       0.817100
     15 C11          4.2430     0.5130    -0.1140 c3         1 OG2       0.219800
     16 C12          5.0210    -0.2640    -1.1890 c3         1 OG2      -0.107100
     17 H1           1.3720    -1.4270     0.9640 hn         1 OG2       0.470000
     18 H2          -1.0470     0.6050     2.4080 hc         1 OG2       0.047533
     19 H3          -0.4670     1.8220     1.2760 hc         1 OG2       0.047533
     20 H4           2.5340    -0.6040    -0.6580 hn         1 OG2       0.457000
     21 H5          -2.9670     1.8910     1.4240 hc         1 OG2       0.052367
     22 H6          -3.3450    -0.5230     2.0230 hc         1 OG2       0.042200
     23 H7          -4.3230    -0.0730     0.6320 hc         1 OG2       0.042200
     24 H8          -3.1740    -2.2740     0.2260 hc         1 OG2       0.052367
     25 H9          -0.6720    -2.3630     0.0700 hc         1 OG2       0.047533
     26 H10         -1.1720    -1.8860     1.6880 hc         1 OG2       0.047533
     27 H11         -2.1070    -1.7010    -1.9780 hc         1 OG2       0.042200
     28 H12         -3.5860    -0.7750    -1.7510 hc         1 OG2       0.042200
     29 H13         -1.7320     0.7160    -2.5680 hc         1 OG2       0.052367
     30 H14          0.2750     1.1160    -1.1250 hc         1 OG2       0.047533
     31 H15          0.1920    -0.5760    -1.6040 hc         1 OG2       0.047533
     32 H16         -3.4590     1.7140    -1.0360 hc         1 OG2       0.042200
     33 H17         -1.8950     2.4760    -0.7770 hc         1 OG2       0.042200
     34 H18          1.4820     0.8310     2.5740 hn         1 OG2       0.382400
     35 H19          4.0980     1.5480    -0.4530 h1         1 OG2       0.050200
     36 H20          4.8360     0.5390     0.8110 h1         1 OG2       0.050200
     37 H21          5.2000    -1.2970    -0.8690 hc         1 OG2       0.037700
     38 H22          4.4690    -0.2790    -2.1360 hc         1 OG2       0.037700
     39 H23          5.9930     0.2120    -1.3680 hc         1 OG2       0.037700
@<TRIPOS>BOND
     1     1     2 1   
     2     1     3 1   
     3     1     8 1   
     4     1    11 1   
     5     2    14 1   
     6     2    17 1   
     7     3     5 1   
     8     3    18 1   
     9     3    19 1   
    10     4    14 1   
    11     4    15 1   
    12     4    20 1   
    13     5     6 1   
    14     5    12 1   
    15     5    21 1   
    16     6     7 1   
    17     6    22 1   
    18     6    23 1   
    19     7     8 1   
    20     7     9 1   
    21     7    24 1   
    22     8    25 1   
    23     8    26 1   
    24     9    10 1   
    25     9    27 1   
    26     9    28 1   
    27    10    11 1   
    28    10    12 1   
    29    10    29 1   
    30    11    30 1   
    31    11    31 1   
    32    12    32 1   
    33    12    33 1   
    34    13    14 2   
    35    13    34 1   
    36    15    16 1   
    37    15    35 1   
    38    15    36 1   
    39    16    37 1   
    40    16    38 1   
    41    16    39 1   
@<TRIPOS>SUBSTRUCTURE
     1 OG2         1 TEMP              0 ****  ****    0 ROOT
