@<TRIPOS>MOLECULE
OG3
   20    20     1     0     0
SMALL
No Charge or Current Charge


@<TRIPOS>ATOM
      1 C01         13.3590   -24.2770    16.2660 c3         1 OG3      -0.127100
      2 C02         13.5120   -24.5320    14.7530 c3         1 OG3       0.201800
      3 C04         14.7370   -25.3820    14.4110 ca         1 OG3      -0.070300
      4 C05         16.0290   -25.0170    14.8530 ca         1 OG3      -0.090500
      5 C06         17.1430   -25.8130    14.5310 ca         1 OG3      -0.105500
      6 C07         16.9770   -26.9770    13.7650 ca         1 OG3       0.122000
      7 C09         15.6990   -27.3470    13.3170 ca         1 OG3      -0.105500
      8 C10         14.5840   -26.5530    13.6380 ca         1 OG3      -0.090500
      9 N03         13.5450   -23.2500    14.0310 n8         1 OG3      -0.986200
     10 Cl08        18.3710   -27.9720    13.3630 cl         1 OG3      -0.208000
     11 H012        13.3390   -25.2290    16.8090 hc         1 OG3       0.039700
     12 H011        14.1850   -23.6750    16.6610 hc         1 OG3       0.039700
     13 H013        12.4200   -23.7510    16.4770 hc         1 OG3       0.039700
     14 H021        12.6120   -25.0730    14.4230 h1         1 OG3       0.062700
     15 H051        16.1740   -24.1160    15.4440 ha         1 OG3       0.116500
     16 H061        18.1340   -25.5270    14.8750 ha         1 OG3       0.128000
     17 H091        15.5730   -28.2480    12.7220 ha         1 OG3       0.128000
     18 H101        13.5980   -26.8490    13.2850 ha         1 OG3       0.116500
     19 H1          12.7640   -22.6690    14.3540 hn         1 OG3       0.393000
     20 H032        14.3750   -22.7290    14.3310 hn         1 OG3       0.393000
@<TRIPOS>BOND
     1     1     2 1   
     2     1    11 1   
     3     1    12 1   
     4     1    13 1   
     5     2     3 1   
     6     2     9 1   
     7     2    14 1   
     8     3     4 ar  
     9     3     8 ar  
    10     4     5 ar  
    11     4    15 1   
    12     5     6 ar  
    13     5    16 1   
    14     6     7 ar  
    15     6    10 1   
    16     7     8 ar  
    17     7    17 1   
    18     8    18 1   
    19     9    19 1   
    20     9    20 1   
@<TRIPOS>SUBSTRUCTURE
     1 OG3         1 TEMP              0 ****  ****    0 ROOT
