@<TRIPOS>MOLECULE
OG3
   20    20     1     0     0
SMALL
bcc


@<TRIPOS>ATOM
      1 C01         13.5050   -24.1140    16.3080 c3         1 OG3      -0.127100
      2 C02         13.5190   -24.5880    14.8570 c3         1 OG3       0.201800
      3 C04         14.7320   -25.4230    14.5050 ca         1 OG3      -0.070300
      4 C05         15.9850   -25.1890    15.0630 ca         1 OG3      -0.108500
      5 C06         17.0940   -25.9360    14.6870 ca         1 OG3      -0.123500
      6 C07         16.9470   -26.9340    13.7400 ca         1 OG3       0.030400
      7 C09         15.7120   -27.1930    13.1650 ca         1 OG3      -0.123500
      8 C10         14.6200   -26.4320    13.5500 ca         1 OG3      -0.108500
      9 N03         13.4070   -23.5110    13.8760 n8         1 OG3      -0.875800
     10 CL08        18.3230   -27.8810    13.2700 cl         1 OG3      -0.116400
     11 H012        13.6020   -24.9450    17.0080 hc         1 OG3       0.039700
     12 H011        14.3090   -23.4030    16.5110 hc         1 OG3       0.039700
     13 H013        12.5630   -23.6070    16.5200 hc         1 OG3       0.039700
     14 H021        12.6420   -25.2280    14.7140 h1         1 OG3       0.062700
     15 H051        16.1200   -24.4150    15.8080 ha         1 OG3       0.134500
     16 H061        18.0600   -25.7380    15.1330 ha         1 OG3       0.146000
     17 H091        15.6000   -27.9760    12.4270 ha         1 OG3       0.146000
     18 H101        13.6550   -26.6340    13.0980 ha         1 OG3       0.134500
     19 H1          12.5620   -22.9820    14.0590 hn         1 OG3       0.337800
     20 H032        14.1720   -22.8580    14.0100 hn         1 OG3       0.337800
@<TRIPOS>BOND
     1     1     2 1   
     2     1    11 1   
     3     1    12 1   
     4     1    13 1   
     5     2     3 1   
     6     2     9 1   
     7     2    14 1   
     8     3     4 ar  
     9     3     8 ar  
    10     4     5 ar  
    11     4    15 1   
    12     5     6 ar  
    13     5    16 1   
    14     6     7 ar  
    15     6    10 1   
    16     7     8 ar  
    17     7    17 1   
    18     8    18 1   
    19     9    19 1   
    20     9    20 1   
@<TRIPOS>SUBSTRUCTURE
     1 OG3         1 TEMP              0 ****  ****    0 ROOT
