@<TRIPOS>MOLECULE
OG4
   52    55     1     0     0
SMALL
No Charge or Current Charge


@<TRIPOS>ATOM
      1 C1          -5.0560    -1.4450     0.8390 cc         1 OG4       0.160400
      2 C10         -0.3480     2.0390    -1.5680 ca         1 OG4      -0.069000
      3 C11          0.7640     1.3140    -1.0800 ca         1 OG4      -0.148600
      4 C12          0.6420    -0.0930    -0.9470 ca         1 OG4      -0.069000
      5 C13         -0.5560    -0.7420    -1.2930 ca         1 OG4      -0.115500
      6 C14          2.0400     2.0560    -0.7180 c          1 OG4       0.617700
      7 C15          4.4220     1.5660     0.1410 ca         1 OG4      -0.040000
      8 C16          5.1640     0.5760     0.8360 ca         1 OG4      -0.072300
      9 C17          6.4940     0.8440     1.2220 ca         1 OG4      -0.104000
     10 C18          7.0910     2.0770     0.9220 ca         1 OG4      -0.131000
     11 C19          6.3650     3.0540     0.2290 ca         1 OG4      -0.123000
     12 C2          -4.6300    -0.5990    -0.1390 cd         1 OG4      -0.297600
     13 C20          5.0400     2.8010    -0.1630 ca         1 OG4      -0.112000
     14 C21          4.5590    -0.7850     1.1890 c3         1 OG4      -0.029100
     15 C22          4.6150    -1.7840     0.0070 c3         1 OG4      -0.208400
     16 C23          3.9850    -3.1240     0.4230 c          1 OG4       0.717000
     17 C3          -5.1530     0.7790    -0.2100 c          1 OG4       0.623600
     18 C4          -6.4000     0.1180     1.7010 cd         1 OG4       0.722800
     19 C5          -3.6870    -1.2850    -0.9530 cd         1 OG4      -0.066300
     20 C6          -3.5530    -2.5600    -0.4540 cc         1 OG4      -0.181000
     21 C7          -2.9480    -0.7300    -2.1480 c3         1 OG4       0.040200
     22 C8          -1.6560    -0.0110    -1.7770 ca         1 OG4      -0.060300
     23 C9          -1.5420     1.3830    -1.9130 ca         1 OG4      -0.115500
     24 N1          -5.9690    -1.1140     1.8080 nc         1 OG4      -0.709100
     25 N2          -6.0480     1.0300     0.7780 ns         1 OG4      -0.454400
     26 N3          -4.4030    -2.6490     0.6550 na         1 OG4      -0.102000
     27 N4          -7.2890     0.4880     2.6070 nv         1 OG4      -1.047200
     28 N5           3.0850     1.2660    -0.2530 ns         1 OG4      -0.150000
     29 O1          -4.8470     1.6190    -1.0410 o          1 OG4      -0.561000
     30 O2           2.1140     3.2770    -0.8230 o          1 OG4      -0.608100
     31 O3           4.7030    -3.9620     0.9450 o          1 OG4      -0.736500
     32 O4           2.7830    -3.2660     0.2620 o          1 OG4      -0.736500
     33 H1          -0.2920     3.1190    -1.6840 ha         1 OG4       0.126000
     34 H2           1.4610    -0.7030    -0.5770 ha         1 OG4       0.126000
     35 H3          -0.6290    -1.8210    -1.1820 ha         1 OG4       0.119000
     36 H4           7.0690     0.0900     1.7550 ha         1 OG4       0.113000
     37 H5           8.1180     2.2720     1.2230 ha         1 OG4       0.098000
     38 H6           6.8290     4.0070    -0.0120 ha         1 OG4       0.097000
     39 H7           4.5160     3.5730    -0.7160 ha         1 OG4       0.117000
     40 H8           5.0910    -1.2220     2.0430 hc         1 OG4       0.056200
     41 H9           3.5210    -0.6710     1.5250 hc         1 OG4       0.056200
     42 H10          4.0420    -1.3290    -0.8090 hc         1 OG4       0.016700
     43 H11          5.6800    -1.9140    -0.2230 hc         1 OG4       0.016700
     44 H12         -2.9360    -3.3880    -0.7850 h4         1 OG4       0.157000
     45 H13         -2.7150    -1.5490    -2.8380 hc         1 OG4       0.055700
     46 H14         -3.6070    -0.0630    -2.7160 hc         1 OG4       0.055700
     47 H15         -2.3810     1.9660    -2.2860 ha         1 OG4       0.119000
     48 H16         -6.4340     1.9580     0.8070 hn         1 OG4       0.316500
     49 H17         -4.5300    -3.4640     1.2430 hn         1 OG4       0.361000
     50 H18         -7.9600     1.1930     2.3300 hn         1 OG4       0.492000
     51 H19         -7.6650    -0.2790     3.1510 hn         1 OG4       0.492000
     52 H20          2.8600     0.2840    -0.1900 hn         1 OG4       0.176000
@<TRIPOS>BOND
     1     1    12 2   
     2     1    24 1   
     3     1    26 1   
     4     2     3 ar  
     5     2    23 ar  
     6     2    33 1   
     7     3     4 ar  
     8     3     6 1   
     9     4     5 ar  
    10     4    34 1   
    11     5    22 ar  
    12     5    35 1   
    13     6    28 1   
    14     6    30 2   
    15     7     8 ar  
    16     7    13 ar  
    17     7    28 1   
    18     8     9 ar  
    19     8    14 1   
    20     9    10 ar  
    21     9    36 1   
    22    10    11 ar  
    23    10    37 1   
    24    11    13 ar  
    25    11    38 1   
    26    12    17 1   
    27    12    19 1   
    28    13    39 1   
    29    14    15 1   
    30    14    40 1   
    31    14    41 1   
    32    15    16 1   
    33    15    42 1   
    34    15    43 1   
    35    16    31 1   
    36    16    32 1   
    37    17    25 1   
    38    17    29 2   
    39    18    24 2   
    40    18    25 1   
    41    18    27 1   
    42    19    20 2   
    43    19    21 1   
    44    20    26 1   
    45    20    44 1   
    46    21    22 1   
    47    21    45 1   
    48    21    46 1   
    49    22    23 ar  
    50    23    47 1   
    51    25    48 1   
    52    26    49 1   
    53    27    50 1   
    54    27    51 1   
    55    28    52 1   
@<TRIPOS>SUBSTRUCTURE
     1 OG4         1 TEMP              0 ****  ****    0 ROOT
