@<TRIPOS>MOLECULE
OG4
   52    55     1     0     0
SMALL
abcg2


@<TRIPOS>ATOM
      1 C1          -4.8940    -1.4510     0.6720 cc         1 OG4       0.160400
      2 C10         -0.3700     1.9570    -0.9070 ca         1 OG4      -0.069000
      3 C11          0.8130     1.2700    -1.1740 ca         1 OG4      -0.148600
      4 C12          0.7430     0.0640    -1.8680 ca         1 OG4      -0.069000
      5 C13         -0.4820    -0.4500    -2.2630 ca         1 OG4      -0.115500
      6 C14          2.1000     1.8830    -0.7340 c          1 OG4       0.617700
      7 C15          4.4300     1.3620    -0.1470 ca         1 OG4      -0.040000
      8 C16          5.0430     0.6200     0.8700 ca         1 OG4      -0.072300
      9 C17          6.3440     0.9600     1.2330 ca         1 OG4      -0.104000
     10 C18          7.0190     2.0090     0.6280 ca         1 OG4      -0.131000
     11 C19          6.3940     2.7380    -0.3750 ca         1 OG4      -0.123000
     12 C2          -4.5620    -0.4590    -0.2520 cd         1 OG4      -0.297600
     13 C20          5.1060     2.4110    -0.7670 ca         1 OG4      -0.112000
     14 C21          4.3470    -0.5350     1.5370 c3         1 OG4      -0.029100
     15 C22          4.4580    -1.8290     0.7310 c3         1 OG4      -0.208400
     16 C23          3.7640    -3.0530     1.3590 c          1 OG4       0.717000
     17 C3          -5.1670     0.8200    -0.0990 c          1 OG4       0.623600
     18 C4          -6.2480    -0.1640     1.8770 cd         1 OG4       0.722800
     19 C5          -3.6710    -1.0390    -1.2110 cd         1 OG4      -0.066300
     20 C6          -3.5060    -2.3370    -0.8270 cc         1 OG4      -0.181000
     21 C7          -2.9990    -0.3660    -2.3700 c3         1 OG4       0.040200
     22 C8          -1.6670     0.2220    -1.9770 ca         1 OG4      -0.060300
     23 C9          -1.5910     1.4370    -1.2960 ca         1 OG4      -0.115500
     24 N1          -5.7170    -1.3470     1.7330 nc         1 OG4      -0.709100
     25 N2          -6.0040     0.8700     1.0190 ns         1 OG4      -0.454400
     26 N3          -4.2450    -2.5750     0.3120 na         1 OG4      -0.102000
     27 N4          -7.0470     0.0960     2.9290 nv         1 OG4      -1.047200
     28 N5           3.1270     1.0140    -0.5570 ns         1 OG4      -0.150000
     29 O1          -5.0410     1.8140    -0.8040 o          1 OG4      -0.561000
     30 O2           2.2020     3.0820    -0.5350 o          1 OG4      -0.608100
     31 O3           3.4060    -2.9640     2.5490 o          1 OG4      -0.736500
     32 O4           3.6380    -4.0470     0.6160 o          1 OG4      -0.736500
     33 H1          -0.3350     2.9040    -0.3840 ha         1 OG4       0.126000
     34 H2           1.6390    -0.4790    -2.1430 ha         1 OG4       0.126000
     35 H3          -0.5120    -1.3840    -2.8100 ha         1 OG4       0.119000
     36 H4           6.8310     0.3920     2.0170 ha         1 OG4       0.113000
     37 H5           8.0260     2.2550     0.9360 ha         1 OG4       0.098000
     38 H6           6.9110     3.5540    -0.8620 ha         1 OG4       0.097000
     39 H7           4.6330     2.9620    -1.5670 ha         1 OG4       0.117000
     40 H8           4.7890    -0.6950     2.5210 hc         1 OG4       0.056200
     41 H9           3.2970    -0.2920     1.7160 hc         1 OG4       0.056200
     42 H10          4.0750    -1.6960    -0.2870 hc         1 OG4       0.016700
     43 H11          5.5180    -2.0710     0.5910 hc         1 OG4       0.016700
     44 H12         -2.9100    -3.1190    -1.2690 h4         1 OG4       0.157000
     45 H13         -2.8490    -1.0900    -3.1720 hc         1 OG4       0.055700
     46 H14         -3.6440     0.4190    -2.7670 hc         1 OG4       0.055700
     47 H15         -2.5010     1.9800    -1.0750 ha         1 OG4       0.119000
     48 H16         -6.4590     1.7570     1.1900 hn         1 OG4       0.316500
     49 H17         -4.3110    -3.4590     0.7910 hn         1 OG4       0.361000
     50 H18         -7.6460     0.9040     2.9280 hn         1 OG4       0.492000
     51 H19         -7.3690    -0.6910     3.4660 hn         1 OG4       0.492000
     52 H20          2.9130     0.0300    -0.5820 hn         1 OG4       0.176000
@<TRIPOS>BOND
     1     1    12 2   
     2     1    24 1   
     3     1    26 1   
     4     2     3 ar  
     5     2    23 ar  
     6     2    33 1   
     7     3     4 ar  
     8     3     6 1   
     9     4     5 ar  
    10     4    34 1   
    11     5    22 ar  
    12     5    35 1   
    13     6    28 1   
    14     6    30 2   
    15     7     8 ar  
    16     7    13 ar  
    17     7    28 1   
    18     8     9 ar  
    19     8    14 1   
    20     9    10 ar  
    21     9    36 1   
    22    10    11 ar  
    23    10    37 1   
    24    11    13 ar  
    25    11    38 1   
    26    12    17 1   
    27    12    19 1   
    28    13    39 1   
    29    14    15 1   
    30    14    40 1   
    31    14    41 1   
    32    15    16 1   
    33    15    42 1   
    34    15    43 1   
    35    16    31 1   
    36    16    32 1   
    37    17    25 1   
    38    17    29 2   
    39    18    24 2   
    40    18    25 1   
    41    18    27 1   
    42    19    20 2   
    43    19    21 1   
    44    20    26 1   
    45    20    44 1   
    46    21    22 1   
    47    21    45 1   
    48    21    46 1   
    49    22    23 ar  
    50    23    47 1   
    51    25    48 1   
    52    26    49 1   
    53    27    50 1   
    54    27    51 1   
    55    28    52 1   
@<TRIPOS>SUBSTRUCTURE
     1 OG4         1 TEMP              0 ****  ****    0 ROOT
