@<TRIPOS>MOLECULE
OG5
   75    80     1     0     0
SMALL
No Charge or Current Charge


@<TRIPOS>ATOM
      1 N1          -0.6660     1.6820     1.3250 ns         1 OG5      -0.505900
      2 N2          -3.4470     2.1510     2.1710 n8         1 OG5      -0.998200
      3 C3           4.6500     5.2190    -0.1750 ca         1 OG5      -0.109500
      4 O3          -0.6240    -5.1150    -1.8940 o          1 OG5      -0.481000
      5 N4          -0.9970    -3.7590    -0.0430 n          1 OG5      -0.410900
      6 C5           6.0860     3.8290     1.2090 ca         1 OG5      -0.109500
      7 C6           5.0410     2.9000     1.3630 ca         1 OG5      -0.091000
      8 C7           1.5070     2.7040     1.7650 c3         1 OG5      -0.183400
      9 C8           0.4860     1.6180     2.0750 c          1 OG5       0.590100
     10 C9          -1.7220     0.6520     1.3160 c3         1 OG5       0.102000
     11 C10         -3.1650     1.2270     1.0440 c6         1 OG5       0.176200
     12 C11         -3.2630     2.0140    -0.3210 c6         1 OG5      -0.067200
     13 C12         -2.9860     1.0550    -1.5240 c6         1 OG5      -0.070400
     14 C13         -4.0400    -0.0910    -1.5430 c6         1 OG5      -0.059700
     15 C14         -5.4600     0.5200    -1.7110 c6         1 OG5      -0.069400
     16 C15         -5.7550     1.4800    -0.5240 c6         1 OG5      -0.059700
     17 C16         -4.6940     2.6190    -0.5140 c6         1 OG5      -0.070400
     18 C17         -5.6820     0.6850     0.8130 c6         1 OG5      -0.070400
     19 C18         -4.2490     0.0830     1.0000 c6         1 OG5      -0.067200
     20 C19         -3.9860    -0.8810    -0.2040 c6         1 OG5      -0.070400
     21 C20          1.8050    -0.8210    -0.8320 ca         1 OG5      -0.354500
     22 C21          0.7280    -1.0900    -1.6810 ca         1 OG5       0.442900
     23 C22         -0.0070    -2.7940    -0.2980 ca         1 OG5       0.520900
     24 C23         -1.1050    -4.9220    -0.7880 c          1 OG5       0.580000
     25 C24         -2.1030    -5.7820     0.0010 c5         1 OG5      -0.165900
     26 C25         -2.9450    -4.7040     0.7400 c5         1 OG5      -0.165900
     27 C26         -1.8980    -3.6130     0.9950 c          1 OG5       0.580000
     28 C27          1.0500    -2.5930     0.6010 ca         1 OG5      -0.145000
     29 C28          1.9840    -1.5850     0.3350 ca         1 OG5       0.051000
     30 N            2.1140     1.7030    -0.3780 n7         1 OG5      -0.939300
     31 C            2.6550     2.1140     0.9280 c3         1 OG5       0.312800
     32 O            4.1850     0.2780    -0.5690 o          1 OG5      -0.536000
     33 C1           3.7910     3.1230     0.7480 ca         1 OG5      -0.099300
     34 C2           3.6050     4.2910    -0.0220 ca         1 OG5      -0.091000
     35 C4           5.8910     4.9880     0.4410 ca         1 OG5      -0.102000
     36 N3          -0.1790    -2.0530    -1.4100 nb         1 OG5      -0.689000
     37 O1           2.7870     0.8760    -2.6420 o          1 OG5      -0.536000
     38 O2           0.6860     0.7410     2.8980 o          1 OG5      -0.604100
     39 O4          -1.7470    -2.8890     1.9650 o          1 OG5      -0.481000
     40 H1          -0.7600     2.4720     0.6970 hn         1 OG5       0.305500
     41 H2          -2.5500     2.4420     2.5720 hn         1 OG5       0.394500
     42 H3          -3.8360     3.0140     1.7840 hn         1 OG5       0.394500
     43 H5           4.4970     6.1160    -0.7720 ha         1 OG5       0.114500
     44 H6           7.0470     3.6480     1.6860 ha         1 OG5       0.114500
     45 H7           5.2070     2.0060     1.9590 ha         1 OG5       0.113500
     46 H8           1.0450     3.5310     1.2140 hc         1 OG5       0.072200
     47 H9           1.9270     3.0710     2.7090 hc         1 OG5       0.072200
     48 H10         -1.4530    -0.0920     0.5580 h1         1 OG5       0.076200
     49 H11         -1.7330     0.1330     2.2830 h1         1 OG5       0.076200
     50 H12         -2.5320     2.8330    -0.3400 hc         1 OG5       0.051700
     51 H13         -3.0310     1.6170    -2.4670 hc         1 OG5       0.042325
     52 H14         -1.9700     0.6410    -1.4760 hc         1 OG5       0.042325
     53 H15         -3.8310    -0.7710    -2.3810 hc         1 OG5       0.051700
     54 H16         -5.5300     1.0620    -2.6650 hc         1 OG5       0.040200
     55 H17         -6.2150    -0.2770    -1.7520 hc         1 OG5       0.040200
     56 H18         -6.7590     1.9120    -0.6420 hc         1 OG5       0.051700
     57 H19         -4.9290     3.3490     0.2730 hc         1 OG5       0.042325
     58 H20         -4.7390     3.1780    -1.4580 hc         1 OG5       0.042325
     59 H21         -5.9490     1.3350     1.6580 hc         1 OG5       0.042325
     60 H22         -6.4300    -0.1200     0.8100 hc         1 OG5       0.042325
     61 H23         -4.2180    -0.4910     1.9360 hc         1 OG5       0.051700
     62 H24         -4.7370    -1.6840    -0.2130 hc         1 OG5       0.042325
     63 H25         -3.0190    -1.3860    -0.1100 hc         1 OG5       0.042325
     64 H26          0.5540    -0.5110    -2.5870 h4         1 OG5       0.032100
     65 H27         -2.6520    -6.4720    -0.6480 hc         1 OG5       0.088450
     66 H28         -3.6850    -4.2990     0.0390 hc         1 OG5       0.088450
     67 H29          1.1360    -3.2060     1.4930 ha         1 OG5       0.139000
     68 H30          2.8100    -1.4030     1.0220 ha         1 OG5       0.147000
     69 H31          1.2340     1.2240    -0.2190 hn         1 OG5       0.499000
     70 H32          3.0410     1.2460     1.4860 h1         1 OG5       0.083700
     71 H33          2.6490     4.4770    -0.5070 ha         1 OG5       0.113500
     72 H34          6.7000     5.7060     0.3230 ha         1 OG5       0.114000
     73 H4          -1.5330    -6.3550     0.7420 hc         1 OG5       0.088450
     74 H35         -3.4440    -5.0200     1.6620 hc         1 OG5       0.088450
     75 S            2.9000     0.5070    -1.2310 sy         1 OG5       1.205600
@<TRIPOS>BOND
     1     1     9 1   
     2     1    10 1   
     3     1    40 1   
     4     2    11 1   
     5     2    41 1   
     6     2    42 1   
     7     3    34 ar  
     8     3    35 ar  
     9     3    43 1   
    10     4    24 2   
    11     5    23 1   
    12     5    24 1   
    13     5    27 1   
    14     6     7 ar  
    15     6    35 ar  
    16     6    44 1   
    17     7    33 ar  
    18     7    45 1   
    19     8     9 1   
    20     8    31 1   
    21     8    46 1   
    22     8    47 1   
    23     9    38 2   
    24    10    11 1   
    25    10    48 1   
    26    10    49 1   
    27    11    12 1   
    28    11    19 1   
    29    12    13 1   
    30    12    17 1   
    31    12    50 1   
    32    13    14 1   
    33    13    51 1   
    34    13    52 1   
    35    14    15 1   
    36    14    20 1   
    37    14    53 1   
    38    15    16 1   
    39    15    54 1   
    40    15    55 1   
    41    16    17 1   
    42    16    18 1   
    43    16    56 1   
    44    17    57 1   
    45    17    58 1   
    46    18    19 1   
    47    18    59 1   
    48    18    60 1   
    49    19    20 1   
    50    19    61 1   
    51    20    62 1   
    52    20    63 1   
    53    21    22 ar  
    54    21    29 ar  
    55    21    75 1   
    56    22    36 ar  
    57    22    64 1   
    58    23    28 ar  
    59    23    36 ar  
    60    24    25 1   
    61    25    26 1   
    62    25    65 1   
    63    25    73 1   
    64    26    27 1   
    65    26    66 1   
    66    26    74 1   
    67    27    39 2   
    68    28    29 ar  
    69    28    67 1   
    70    29    68 1   
    71    30    31 1   
    72    30    69 1   
    73    30    75 1   
    74    31    33 1   
    75    31    70 1   
    76    32    75 2   
    77    33    34 ar  
    78    34    71 1   
    79    35    72 1   
    80    37    75 2   
@<TRIPOS>SUBSTRUCTURE
     1 OG5         1 TEMP              0 ****  ****    0 ROOT
