@<TRIPOS>MOLECULE
OG5
   75    80     1     0     0
SMALL
bcc


@<TRIPOS>ATOM
      1 N1          -0.7710     1.5830     1.0840 ns         1 OG5      -0.572900
      2 N2          -3.3970     2.1210     2.1430 n8         1 OG5      -0.887800
      3 C3           4.7640     5.1060     0.0670 ca         1 OG5      -0.127500
      4 O3           0.3690    -5.5950    -0.9210 o          1 OG5      -0.556500
      5 N4          -0.6780    -3.9560     0.2840 n          1 OG5      -0.544900
      6 C5           5.7500     3.8460     1.8570 ca         1 OG5      -0.127500
      7 C6           4.7640     2.8790     1.7130 ca         1 OG5      -0.109000
      8 C7           1.4740     2.3780     1.5100 c3         1 OG5      -0.183400
      9 C8           0.4480     1.2610     1.5380 c          1 OG5       0.657100
     10 C9          -1.8740     0.6410     1.0450 c3         1 OG5       0.102000
     11 C10         -3.2270     1.3480     0.9130 c6         1 OG5       0.176200
     12 C11         -3.3250     2.1980    -0.3830 c6         1 OG5      -0.067200
     13 C12         -3.1660     1.3190    -1.6300 c6         1 OG5      -0.070400
     14 C13         -4.2750     0.2670    -1.6680 c6         1 OG5      -0.059700
     15 C14         -5.6350     0.9660    -1.7240 c6         1 OG5      -0.069400
     16 C15         -5.8060     1.8430    -0.4810 c6         1 OG5      -0.059700
     17 C16         -4.6910     2.8890    -0.4570 c6         1 OG5      -0.070400
     18 C17         -5.7210     0.9650     0.7710 c6         1 OG5      -0.070400
     19 C18         -4.3470     0.2840     0.8390 c6         1 OG5      -0.067200
     20 C19         -4.2070    -0.5990    -0.4080 c6         1 OG5      -0.070400
     21 C20          1.7230    -0.8910    -0.9930 ca         1 OG5      -0.419800
     22 C21          0.3970    -1.0260    -1.3810 ca         1 OG5       0.508200
     23 C22          0.1630    -2.8940    -0.1230 ca         1 OG5       0.586200
     24 C23         -0.5050    -5.2570    -0.1660 c          1 OG5       0.722500
     25 C24         -1.5810    -6.1060     0.4560 c5         1 OG5      -0.165900
     26 C25         -2.4160    -5.1480     1.2950 c5         1 OG5      -0.165900
     27 C26         -1.7570    -3.8020     1.1450 c          1 OG5       0.722500
     28 C27          1.4700    -2.8450     0.3290 ca         1 OG5      -0.228300
     29 C28          2.2750    -1.8140    -0.1220 ca         1 OG5       0.033000
     30 N            2.2320     1.7680    -0.7170 n7         1 OG5      -0.884100
     31 C            2.6760     1.9800     0.6540 c3         1 OG5       0.312800
     32 O            4.0660     0.1910    -1.2950 o          1 OG5      -0.606800
     33 C1           3.7730     3.0150     0.7460 ca         1 OG5      -0.099300
     34 C2           3.7810     4.1370    -0.0760 ca         1 OG5      -0.109000
     35 C4           5.7510     4.9650     1.0340 ca         1 OG5      -0.120000
     36 N3          -0.3670    -2.0170    -0.9560 nb         1 OG5      -0.689000
     37 O1           2.2450     0.7370    -2.9600 o          1 OG5      -0.606800
     38 O2           0.7440     0.1450     1.9390 o          1 OG5      -0.604100
     39 O4          -2.0650    -2.7630     1.6630 o          1 OG5      -0.556500
     40 H1          -0.9120     2.5140     0.7280 hn         1 OG5       0.305500
     41 H2          -2.6760     2.8290     2.2230 hn         1 OG5       0.339300
     42 H3          -4.2700     2.6310     2.1350 hn         1 OG5       0.339300
     43 H5           4.7600     5.9740    -0.5800 ha         1 OG5       0.132500
     44 H6           6.5180     3.7230     2.6090 ha         1 OG5       0.132500
     45 H7           4.7680     2.0070     2.3570 ha         1 OG5       0.131500
     46 H8           1.0560     3.3220     1.1490 hc         1 OG5       0.072200
     47 H9           1.8150     2.5580     2.5310 hc         1 OG5       0.072200
     48 H10         -1.7160    -0.0750     0.2400 h1         1 OG5       0.076200
     49 H11         -1.8770     0.0630     1.9690 h1         1 OG5       0.076200
     50 H12         -2.5530     2.9770    -0.3870 hc         1 OG5       0.051700
     51 H13         -3.2160     1.9480    -2.5250 hc         1 OG5       0.042325
     52 H14         -2.1830     0.8420    -1.6530 hc         1 OG5       0.042325
     53 H15         -4.1490    -0.3660    -2.5520 hc         1 OG5       0.051700
     54 H16         -5.7070     1.5790    -2.6290 hc         1 OG5       0.040200
     55 H17         -6.4380     0.2240    -1.7780 hc         1 OG5       0.040200
     56 H18         -6.7790     2.3440    -0.5130 hc         1 OG5       0.051700
     57 H19         -4.8270     3.5880     0.3740 hc         1 OG5       0.042325
     58 H20         -4.7320     3.4980    -1.3660 hc         1 OG5       0.042325
     59 H21         -5.9290     1.5480     1.6730 hc         1 OG5       0.042325
     60 H22         -6.4960     0.1920     0.7360 hc         1 OG5       0.042325
     61 H23         -4.2880    -0.3390     1.7380 hc         1 OG5       0.051700
     62 H24         -5.0240    -1.3270    -0.4170 hc         1 OG5       0.042325
     63 H25         -3.2860    -1.1870    -0.3870 hc         1 OG5       0.042325
     64 H26         -0.0620    -0.3260    -2.0710 h4         1 OG5       0.032100
     65 H27         -2.1520    -6.5940    -0.3340 hc         1 OG5       0.088450
     66 H28         -3.4490    -5.0750     0.9530 hc         1 OG5       0.088450
     67 H29          1.8510    -3.5890     1.0140 ha         1 OG5       0.157000
     68 H30          3.3040    -1.7460     0.2010 ha         1 OG5       0.165000
     69 H31          1.4140     2.2610    -1.0500 hn         1 OG5       0.443800
     70 H32          3.0590     1.0340     1.0470 h1         1 OG5       0.083700
     71 H33          3.0240     4.2560    -0.8420 ha         1 OG5       0.131500
     72 H34          6.5190     5.7200     1.1430 ha         1 OG5       0.132000
     73 H4          -1.1110    -6.8920     1.0480 hc         1 OG5       0.088450
     74 H35         -2.4450    -5.4170     2.3510 hc         1 OG5       0.088450
     75 S            2.6770     0.4770    -1.5990 sy         1 OG5       1.347200
@<TRIPOS>BOND
     1     1     9 1   
     2     1    10 1   
     3     1    40 1   
     4     2    11 1   
     5     2    41 1   
     6     2    42 1   
     7     3    34 ar  
     8     3    35 ar  
     9     3    43 1   
    10     4    24 2   
    11     5    23 1   
    12     5    24 1   
    13     5    27 1   
    14     6     7 ar  
    15     6    35 ar  
    16     6    44 1   
    17     7    33 ar  
    18     7    45 1   
    19     8     9 1   
    20     8    31 1   
    21     8    46 1   
    22     8    47 1   
    23     9    38 2   
    24    10    11 1   
    25    10    48 1   
    26    10    49 1   
    27    11    12 1   
    28    11    19 1   
    29    12    13 1   
    30    12    17 1   
    31    12    50 1   
    32    13    14 1   
    33    13    51 1   
    34    13    52 1   
    35    14    15 1   
    36    14    20 1   
    37    14    53 1   
    38    15    16 1   
    39    15    54 1   
    40    15    55 1   
    41    16    17 1   
    42    16    18 1   
    43    16    56 1   
    44    17    57 1   
    45    17    58 1   
    46    18    19 1   
    47    18    59 1   
    48    18    60 1   
    49    19    20 1   
    50    19    61 1   
    51    20    62 1   
    52    20    63 1   
    53    21    22 ar  
    54    21    29 ar  
    55    21    75 1   
    56    22    36 ar  
    57    22    64 1   
    58    23    28 ar  
    59    23    36 ar  
    60    24    25 1   
    61    25    26 1   
    62    25    65 1   
    63    25    73 1   
    64    26    27 1   
    65    26    66 1   
    66    26    74 1   
    67    27    39 2   
    68    28    29 ar  
    69    28    67 1   
    70    29    68 1   
    71    30    31 1   
    72    30    69 1   
    73    30    75 1   
    74    31    33 1   
    75    31    70 1   
    76    32    75 2   
    77    33    34 ar  
    78    34    71 1   
    79    35    72 1   
    80    37    75 2   
@<TRIPOS>SUBSTRUCTURE
     1 OG5         1 TEMP              0 ****  ****    0 ROOT
