@<TRIPOS>MOLECULE
OG7
   46    49     1     0     0
SMALL
abcg2


@<TRIPOS>ATOM
      1 C10         -0.0440     0.9110    -1.1070 ca         1 OG7      -0.070000
      2 C11          1.0450     0.3010    -0.4840 ca         1 OG7      -0.135600
      3 C12          0.9240    -1.0290    -0.0870 ca         1 OG7      -0.070000
      4 C13         -0.2520    -1.7260    -0.3160 ca         1 OG7      -0.123500
      5 C14          2.2710     1.1240    -0.2460 c          1 OG7       0.613700
      6 C15          4.7010     0.8560     0.1850 ca         1 OG7       0.005000
      7 C16          5.7180    -0.1250     0.2560 ca         1 OG7      -0.199600
      8 C17          7.0170     0.2850     0.5410 ca         1 OG7      -0.064000
      9 C18          7.3400     1.6150     0.7540 ca         1 OG7      -0.178000
     10 C01         -5.2450    -0.5710     1.1180 cc         1 OG7       0.222000
     11 C02         -4.5880    -0.4950    -0.0920 cd         1 OG7      -0.262600
     12 C03         -5.0090     0.5160    -1.0360 c          1 OG7       0.765100
     13 C04         -6.5740     1.2480     0.5530 cc         1 OG7       0.897100
     14 C05         -3.6310    -1.5620    -0.1000 cd         1 OG7      -0.043300
     15 C06         -3.7680    -2.2080     1.0940 cc         1 OG7      -0.205000
     16 C08         -1.3350    -1.1240    -0.9490 ca         1 OG7      -0.076300
     17 C09         -1.2120     0.2070    -1.3430 ca         1 OG7      -0.123500
     18 C19          6.3350     2.5670     0.6810 ca         1 OG7      -0.106000
     19 C20          5.0290     2.2000     0.4010 ca         1 OG7      -0.176000
     20 C21          5.4740    -1.6150     0.0350 c          1 OG7       0.723600
     21 N01         -6.2410     0.2900     1.4630 na         1 OG7      -0.931200
     22 N02         -6.0120     1.3590    -0.6200 nd         1 OG7      -0.789100
     23 N03         -4.7590    -1.5930     1.8350 na         1 OG7      -0.134000
     24 N05          3.4090     0.4150    -0.0910 ns         1 OG7      -0.160000
     25 O02          2.1970     2.3460    -0.2140 o          1 OG7      -0.645100
     26 O03          4.3000    -1.9770    -0.2510 o          1 OG7      -0.710000
     27 O04          6.4450    -2.3740     0.1450 o          1 OG7      -0.710000
     28 H1           0.0270     1.9450    -1.4170 ha         1 OG7       0.138000
     29 H2           1.7330    -1.5370     0.4210 ha         1 OG7       0.138000
     30 H3          -0.3270    -2.7570     0.0090 ha         1 OG7       0.115500
     31 H4           7.7900    -0.4690     0.5950 ha         1 OG7       0.126000
     32 H5           8.3600     1.9030     0.9720 ha         1 OG7       0.088000
     33 H6          -3.2380    -3.0580     1.4930 h4         1 OG7       0.155000
     34 H7          -2.4130    -2.9540    -1.1490 hc         1 OG7       0.058700
     35 H8          -3.0310    -1.6480    -2.1430 hc         1 OG7       0.058700
     36 H9          -2.0440     0.6960    -1.8350 ha         1 OG7       0.115500
     37 H10          6.5620     3.6140     0.8430 ha         1 OG7       0.084000
     38 H11          4.2670     2.9590     0.3490 ha         1 OG7       0.130000
     39 H12         -6.6980     0.2380     2.3620 hn         1 OG7       0.493000
     40 H13         -5.0610    -1.8780     2.7520 hn         1 OG7       0.344000
     41 H14         -7.8810     2.7450     0.2250 hn         1 OG7       0.496500
     42 H15         -8.0930     1.9670     1.7360 hn         1 OG7       0.496500
     43 H16          3.4210    -0.6140    -0.2330 hn         1 OG7       0.234000
     44 C07         -2.6220    -1.8830    -1.1600 c3         1 OG7       0.039200
     45 N04         -7.5160     2.1270     0.9280 nv         1 OG7      -1.060200
     46 O01         -4.5270     0.6420    -2.1620 o          1 OG7      -0.563100
@<TRIPOS>BOND
     1     1     2 ar  
     2     1    17 ar  
     3     1    28 1   
     4     2     3 ar  
     5     2     5 1   
     6     3     4 ar  
     7     3    29 1   
     8     4    16 ar  
     9     4    30 1   
    10     5    24 1   
    11     5    25 2   
    12     6     7 ar  
    13     6    19 ar  
    14     6    24 1   
    15     7     8 ar  
    16     7    20 1   
    17     8     9 ar  
    18     8    31 1   
    19     9    18 ar  
    20     9    32 1   
    21    10    11 2   
    22    10    21 1   
    23    10    23 1   
    24    11    12 1   
    25    11    14 1   
    26    12    22 1   
    27    12    46 2   
    28    13    21 1   
    29    13    22 2   
    30    13    45 1   
    31    14    15 2   
    32    14    44 1   
    33    15    23 1   
    34    15    33 1   
    35    16    17 ar  
    36    16    44 1   
    37    17    36 1   
    38    18    19 ar  
    39    18    37 1   
    40    19    38 1   
    41    20    26 1   
    42    20    27 1   
    43    21    39 1   
    44    23    40 1   
    45    24    43 1   
    46    34    44 1   
    47    35    44 1   
    48    41    45 1   
    49    42    45 1   
@<TRIPOS>SUBSTRUCTURE
     1 OG7         1 TEMP              0 ****  ****    0 ROOT
