@<TRIPOS>MOLECULE
OG7
   46    49     1     0     0
SMALL
No Charge or Current Charge


@<TRIPOS>ATOM
      1 C10          0.0790     0.8640    -1.9590 ca         1 OG7      -0.070000
      2 C11          1.0770     0.3440    -1.1010 ca         1 OG7      -0.135600
      3 C12          0.7860    -0.8410    -0.3780 ca         1 OG7      -0.070000
      4 C13         -0.4590    -1.4780    -0.5180 ca         1 OG7      -0.123500
      5 C14          2.4090     1.0670    -0.9810 c          1 OG7       0.613700
      6 C15          4.6640     0.8590     0.2440 ca         1 OG7       0.005000
      7 C16          5.5420    -0.1180     0.7930 ca         1 OG7      -0.199600
      8 C17          6.8430     0.2710     1.1880 ca         1 OG7      -0.064000
      9 C18          7.2670     1.6020     1.0610 ca         1 OG7      -0.178000
     10 C01         -5.1000    -0.7500     1.1930 cc         1 OG7       0.222000
     11 C02         -4.5540    -0.4650     0.0100 cd         1 OG7      -0.262600
     12 C03         -4.9330     0.7530    -0.6890 c          1 OG7       0.765100
     13 C04         -6.3450     1.2010     1.1330 cc         1 OG7       0.897100
     14 C05         -3.6540    -1.5280    -0.2850 cd         1 OG7      -0.043300
     15 C06         -3.6970    -2.4310     0.7670 cc         1 OG7      -0.205000
     16 C08         -1.4420    -0.9530    -1.3760 ca         1 OG7      -0.076300
     17 C09         -1.1630     0.2220    -2.0950 ca         1 OG7      -0.123500
     18 C19          6.3980     2.5660     0.5380 ca         1 OG7      -0.106000
     19 C20          5.1060     2.1980     0.1350 ca         1 OG7      -0.176000
     20 C21          5.1380    -1.5710     0.9570 c          1 OG7       0.723600
     21 N01         -6.0120     0.0800     1.8050 na         1 OG7      -0.931200
     22 N02         -5.8660     1.5310    -0.0160 nd         1 OG7      -0.789100
     23 N03         -4.6140    -1.9250     1.7040 na         1 OG7      -0.134000
     24 N05          3.3570     0.4700    -0.1620 ns         1 OG7      -0.160000
     25 O02          2.6170     2.1110    -1.5950 o          1 OG7      -0.645100
     26 O03          3.9760    -1.8310     1.2350 o          1 OG7      -0.710000
     27 O04          6.0000    -2.4270     0.8250 o          1 OG7      -0.710000
     28 H1           0.2650     1.7720    -2.5290 ha         1 OG7       0.138000
     29 H2           1.5090    -1.2840     0.3010 ha         1 OG7       0.138000
     30 H3          -0.6620    -2.3850     0.0470 ha         1 OG7       0.115500
     31 H4           7.5290    -0.4640     1.6060 ha         1 OG7       0.126000
     32 H5           8.2700     1.8850     1.3740 ha         1 OG7       0.088000
     33 H6          -3.1600    -3.3600     0.9210 h4         1 OG7       0.155000
     34 H7          -2.6200    -2.7160    -1.7290 hc         1 OG7       0.058700
     35 H8          -3.3300    -1.2710    -2.3890 hc         1 OG7       0.058700
     36 H9          -1.9110     0.6450    -2.7620 ha         1 OG7       0.115500
     37 H10          6.7230     3.6000     0.4480 ha         1 OG7       0.084000
     38 H11          4.4520     2.9750    -0.2490 ha         1 OG7       0.130000
     39 H12         -6.3990    -0.0960     2.7200 hn         1 OG7       0.493000
     40 H13         -4.8730    -2.3410     2.5900 hn         1 OG7       0.344000
     41 H14         -7.5730     2.6600     1.0750 hn         1 OG7       0.496500
     42 H15         -7.9460     1.4510     2.2050 hn         1 OG7       0.496500
     43 H16          3.0690    -0.4170     0.2340 hn         1 OG7       0.234000
     44 C07         -2.7890    -1.6530    -1.5150 c3         1 OG7       0.039200
     45 N04         -7.2270     1.9530     1.7070 nv         1 OG7      -1.060200
     46 O01         -4.5050     1.1050    -1.7760 o          1 OG7      -0.563100
@<TRIPOS>BOND
     1     1     2 ar  
     2     1    17 ar  
     3     1    28 1   
     4     2     3 ar  
     5     2     5 1   
     6     3     4 ar  
     7     3    29 1   
     8     4    16 ar  
     9     4    30 1   
    10     5    24 1   
    11     5    25 2   
    12     6     7 ar  
    13     6    19 ar  
    14     6    24 1   
    15     7     8 ar  
    16     7    20 1   
    17     8     9 ar  
    18     8    31 1   
    19     9    18 ar  
    20     9    32 1   
    21    10    11 2   
    22    10    21 1   
    23    10    23 1   
    24    11    12 1   
    25    11    14 1   
    26    12    22 1   
    27    12    46 2   
    28    13    21 1   
    29    13    22 2   
    30    13    45 1   
    31    14    15 2   
    32    14    44 1   
    33    15    23 1   
    34    15    33 1   
    35    16    17 ar  
    36    16    44 1   
    37    17    36 1   
    38    18    19 ar  
    39    18    37 1   
    40    19    38 1   
    41    20    26 1   
    42    20    27 1   
    43    21    39 1   
    44    23    40 1   
    45    24    43 1   
    46    34    44 1   
    47    35    44 1   
    48    41    45 1   
    49    42    45 1   
@<TRIPOS>SUBSTRUCTURE
     1 OG7         1 TEMP              0 ****  ****    0 ROOT
