@<TRIPOS>MOLECULE
OG9
   31    34     1     0     0
SMALL
No Charge or Current Charge


@<TRIPOS>ATOM
      1 CA          -7.0540    -0.8550     3.9980 c3         1 OG9      -0.205100
      2 C           -8.2670    -0.1070     4.5680 c          1 OG9       0.724000
      3 O           -9.1370    -0.7640     5.1180 o          1 OG9      -0.717000
      4 C05         -6.0220    -1.0840     5.1100 ca         1 OG9       0.055700
      5 C06         -6.0510    -2.3250     5.7790 ca         1 OG9      -0.129000
      6 C07         -5.1370    -2.6230     6.7980 ca         1 OG9      -0.082000
      7 C08         -4.1680    -1.6800     7.1700 ca         1 OG9      -0.082000
      8 C09         -3.2500    -1.9860     8.1920 ca         1 OG9      -0.072000
      9 C10         -2.2770    -1.0490     8.5730 ca         1 OG9      -0.136000
     10 C11         -2.2160     0.2020     7.9340 ca         1 OG9      -0.018000
     11 C12         -1.2410     1.1420     8.3160 ca         1 OG9      -0.132000
     12 C13         -1.1800     2.3920     7.6790 ca         1 OG9      -0.111000
     13 C14         -2.0930     2.7070     6.6590 ca         1 OG9      -0.125000
     14 C15         -3.0700     1.7710     6.2730 ca         1 OG9      -0.004000
     15 C16         -3.1360     0.5140     6.9080 ca         1 OG9      -0.022000
     16 C17         -4.1190    -0.4270     6.5190 ca         1 OG9       0.000000
     17 C18         -5.0440    -0.1180     5.4880 ca         1 OG9      -0.051000
     18 C19         -4.9620     1.1530     4.8670 ca         1 OG9      -0.030000
     19 C20         -3.9850     2.0840     5.2560 ca         1 OG9      -0.158000
     20 H1          -7.3730    -1.8450     3.6520 hc         1 OG9       0.036200
     21 H2          -6.5820    -0.2830     3.1930 hc         1 OG9       0.036200
     22 H4          -6.7940    -3.0710     5.5080 ha         1 OG9       0.108000
     23 H5          -5.1830    -3.5890     7.2960 ha         1 OG9       0.095000
     24 H6          -3.2890    -2.9510     8.6930 ha         1 OG9       0.097000
     25 H7          -1.5730    -1.2960     9.3630 ha         1 OG9       0.097000
     26 H8          -0.5310     0.9060     9.1050 ha         1 OG9       0.097000
     27 H9          -0.4260     3.1180     7.9760 ha         1 OG9       0.095000
     28 H10         -2.0400     3.6780     6.1710 ha         1 OG9       0.103000
     29 H11         -5.6510     1.4450     4.0810 ha         1 OG9       0.141000
     30 H12         -3.9430     3.0530     4.7630 ha         1 OG9       0.104000
     31 O1          -8.2580     1.1140     4.5430 o          1 OG9      -0.717000
@<TRIPOS>BOND
     1     1     2 1   
     2     1     4 1   
     3     1    20 1   
     4     1    21 1   
     5     2     3 1   
     6     2    31 1   
     7     4     5 ar  
     8     4    17 ar  
     9     5     6 ar  
    10     5    22 1   
    11     6     7 ar  
    12     6    23 1   
    13     7     8 ar  
    14     7    16 ar  
    15     8     9 ar  
    16     8    24 1   
    17     9    10 ar  
    18     9    25 1   
    19    10    11 ar  
    20    10    15 ar  
    21    11    12 ar  
    22    11    26 1   
    23    12    13 ar  
    24    12    27 1   
    25    13    14 ar  
    26    13    28 1   
    27    14    15 ar  
    28    14    19 ar  
    29    15    16 ar  
    30    16    17 ar  
    31    17    18 ar  
    32    18    19 ar  
    33    18    29 1   
    34    19    30 1   
@<TRIPOS>SUBSTRUCTURE
     1 OG9         1 TEMP              0 ****  ****    0 ROOT
