@<TRIPOS>MOLECULE
OG9
   31    34     1     0     0
SMALL
abcg2


@<TRIPOS>ATOM
      1 CA          -7.0160    -0.8290     4.0580 c3         1 OG9      -0.205100
      2 C           -8.1480     0.1490     4.4840 c          1 OG9       0.724000
      3 O           -8.3820     0.2470     5.7020 o          1 OG9      -0.717000
      4 C05         -6.0100    -1.1250     5.1250 ca         1 OG9       0.055700
      5 C06         -6.0000    -2.3650     5.7560 ca         1 OG9      -0.129000
      6 C07         -5.0880    -2.6780     6.7500 ca         1 OG9      -0.082000
      7 C08         -4.1340    -1.7470     7.1550 ca         1 OG9      -0.082000
      8 C09         -3.1750    -2.0360     8.1790 ca         1 OG9      -0.072000
      9 C10         -2.2590    -1.1180     8.5600 ca         1 OG9      -0.136000
     10 C11         -2.2150     0.1780     7.9510 ca         1 OG9      -0.018000
     11 C12         -1.2770     1.1390     8.3300 ca         1 OG9      -0.132000
     12 C13         -1.2580     2.3870     7.7240 ca         1 OG9      -0.111000
     13 C14         -2.1730     2.7020     6.7320 ca         1 OG9      -0.125000
     14 C15         -3.1270     1.7670     6.3250 ca         1 OG9      -0.004000
     15 C16         -3.1530     0.4900     6.9350 ca         1 OG9      -0.022000
     16 C17         -4.1180    -0.4750     6.5310 ca         1 OG9       0.000000
     17 C18         -5.0570    -0.1670     5.5150 ca         1 OG9      -0.051000
     18 C19         -5.0060     1.1390     4.9240 ca         1 OG9      -0.030000
     19 C20         -4.0890     2.0570     5.3060 ca         1 OG9      -0.158000
     20 H1          -7.4980    -1.7650     3.7570 hc         1 OG9       0.036200
     21 H2          -6.5290    -0.4510     3.1560 hc         1 OG9       0.036200
     22 H4          -6.7300    -3.1090     5.4580 ha         1 OG9       0.108000
     23 H5          -5.1110    -3.6550     7.2190 ha         1 OG9       0.095000
     24 H6          -3.1990    -3.0120     8.6470 ha         1 OG9       0.097000
     25 H7          -1.5390    -1.3490     9.3360 ha         1 OG9       0.097000
     26 H8          -0.5580     0.9020     9.1050 ha         1 OG9       0.097000
     27 H9          -0.5220     3.1200     8.0290 ha         1 OG9       0.095000
     28 H10         -2.1540     3.6780     6.2630 ha         1 OG9       0.103000
     29 H11         -5.7180     1.3980     4.1510 ha         1 OG9       0.141000
     30 H12         -4.0720     3.0350     4.8420 ha         1 OG9       0.104000
     31 O1          -8.7390     0.7220     3.5490 o          1 OG9      -0.717000
@<TRIPOS>BOND
     1     1     2 1   
     2     1     4 1   
     3     1    20 1   
     4     1    21 1   
     5     2     3 1   
     6     2    31 1   
     7     4     5 ar  
     8     4    17 ar  
     9     5     6 ar  
    10     5    22 1   
    11     6     7 ar  
    12     6    23 1   
    13     7     8 ar  
    14     7    16 ar  
    15     8     9 ar  
    16     8    24 1   
    17     9    10 ar  
    18     9    25 1   
    19    10    11 ar  
    20    10    15 ar  
    21    11    12 ar  
    22    11    26 1   
    23    12    13 ar  
    24    12    27 1   
    25    13    14 ar  
    26    13    28 1   
    27    14    15 ar  
    28    14    19 ar  
    29    15    16 ar  
    30    16    17 ar  
    31    17    18 ar  
    32    18    19 ar  
    33    18    29 1   
    34    19    30 1   
@<TRIPOS>SUBSTRUCTURE
     1 OG9         1 TEMP              0 ****  ****    0 ROOT
