@<TRIPOS>MOLECULE
OGA
   13    12     1     0     0
SMALL
No Charge or Current Charge


@<TRIPOS>ATOM
      1 C1           0.4200    -0.1110    -2.3870 c          1 OGA       0.656000
      2 C2          -0.6470    -0.0480    -1.1380 c          1 OGA       0.439100
      3 C4          -0.7790     0.0790     1.4070 c3         1 OGA      -0.041000
      4 C5           0.1770    -0.0650     2.6320 c          1 OGA       0.706000
      5 O1           1.6230    -0.1120    -2.1250 o          1 OGA      -0.726000
      6 O2          -0.0080    -0.1540    -3.5390 o          1 OGA      -0.726000
      7 O5          -1.8760    -0.0450    -1.2680 o          1 OGA      -0.704100
      8 O3          -0.2370    -0.6530     3.6210 o          1 OGA      -0.753500
      9 N1          -0.0560     0.0040     0.1170 ns         1 OGA      -0.471900
     10 O4           1.3170     0.3730     2.5430 o          1 OGA      -0.753500
     11 H4C1        -1.5300    -0.7210     1.4410 h1         1 OGA       0.010700
     12 H4C2        -1.2900     1.0480     1.4730 h1         1 OGA       0.010700
     13 H1           0.9610     0.0090     0.1330 hn         1 OGA       0.353500
@<TRIPOS>BOND
     1     1     2 1   
     2     1     5 1   
     3     1     6 1   
     4     2     7 2   
     5     2     9 1   
     6     3     4 1   
     7     3     9 1   
     8     3    11 1   
     9     3    12 1   
    10     4     8 1   
    11     4    10 1   
    12     9    13 1   
@<TRIPOS>SUBSTRUCTURE
     1 OGA         1 TEMP              0 ****  ****    0 ROOT
