@<TRIPOS>MOLECULE
OGA
   13    12     1     0     0
SMALL
abcg2


@<TRIPOS>ATOM
      1 C1           0.4050    -0.0310    -2.2850 c          1 OGA       0.656000
      2 C2          -0.6100    -0.0270    -1.1040 c          1 OGA       0.439100
      3 C4          -0.7610    -0.0290     1.3440 c3         1 OGA      -0.041000
      4 C5           0.1970    -0.0350     2.5530 c          1 OGA       0.706000
      5 O1           1.6100    -0.0360    -1.9730 o          1 OGA      -0.726000
      6 O2          -0.0980    -0.0290    -3.4160 o          1 OGA      -0.726000
      7 O5          -1.8240    -0.0200    -1.2830 o          1 OGA      -0.704100
      8 O3          -0.3560    -0.0400     3.6670 o          1 OGA      -0.753500
      9 N1          -0.0420    -0.0310     0.1010 ns         1 OGA      -0.471900
     10 O4           1.4200    -0.0350     2.3140 o          1 OGA      -0.753500
     11 H4C1        -1.4210    -0.9000     1.4150 h1         1 OGA       0.010700
     12 H4C2        -1.4110     0.8500     1.4170 h1         1 OGA       0.010700
     13 H1           0.9660    -0.0330     0.1590 hn         1 OGA       0.353500
@<TRIPOS>BOND
     1     1     2 1   
     2     1     5 1   
     3     1     6 1   
     4     2     7 2   
     5     2     9 1   
     6     3     4 1   
     7     3     9 1   
     8     3    11 1   
     9     3    12 1   
    10     4     8 1   
    11     4    10 1   
    12     9    13 1   
@<TRIPOS>SUBSTRUCTURE
     1 OGA         1 TEMP              0 ****  ****    0 ROOT
