@<TRIPOS>MOLECULE
OGB
   23    24     1     0     0
SMALL
bcc


@<TRIPOS>ATOM
      1 N           17.0510   -27.0900   -15.1370 nb         1 OGB      -0.660000
      2 C           13.0530   -28.8500   -19.9130 c3         1 OGB       0.126700
      3 O           13.6900   -27.9060   -19.0490 os         1 OGB      -0.410900
      4 C1          14.2340   -26.8380   -19.6050 c          1 OGB       0.654700
      5 C10         15.5860   -26.3880   -17.4560 ca         1 OGB       0.035000
      6 C2          14.8840   -25.9380   -18.6120 ca         1 OGB      -0.132600
      7 C3          14.7770   -24.5890   -18.8580 ca         1 OGB      -0.054000
      8 C4          15.2980   -23.6290   -17.9730 ca         1 OGB      -0.146000
      9 C5          15.9520   -24.0340   -16.8440 ca         1 OGB      -0.072000
     10 C6          16.1160   -25.4090   -16.5780 ca         1 OGB      -0.179300
     11 C7          16.8290   -25.8400   -15.4340 ca         1 OGB       0.429200
     12 C8          16.5700   -28.0210   -15.9890 ca         1 OGB       0.392200
     13 C9          15.8560   -27.7360   -17.1190 ca         1 OGB      -0.224300
     14 O1          14.1720   -26.5890   -20.7840 o          1 OGB      -0.533000
     15 H1          12.7020   -29.6500   -19.2680 h1         1 OGB       0.050367
     16 H2          12.2050   -28.4020   -20.4300 h1         1 OGB       0.050367
     17 H3          13.7510   -29.2540   -20.6450 h1         1 OGB       0.050367
     18 H4          14.2600   -24.2500   -19.7460 ha         1 OGB       0.151000
     19 H5          15.1730   -22.5780   -18.1930 ha         1 OGB       0.142000
     20 H6          16.3580   -23.3100   -16.1480 ha         1 OGB       0.138000
     21 H7          17.2240   -25.0880   -14.7570 h4         1 OGB       0.019100
     22 H8          16.7820   -29.0520   -15.7320 h4         1 OGB       0.020100
     23 H9          15.5210   -28.5530   -17.7380 ha         1 OGB       0.153000
@<TRIPOS>BOND
     1     1    11 ar  
     2     1    12 ar  
     3     2     3 1   
     4     2    15 1   
     5     2    16 1   
     6     2    17 1   
     7     3     4 1   
     8     4     6 1   
     9     4    14 2   
    10     5     6 ar  
    11     5    10 ar  
    12     5    13 ar  
    13     6     7 ar  
    14     7     8 ar  
    15     7    18 1   
    16     8     9 ar  
    17     8    19 1   
    18     9    10 ar  
    19     9    20 1   
    20    10    11 ar  
    21    11    21 1   
    22    12    13 ar  
    23    12    22 1   
    24    13    23 1   
@<TRIPOS>SUBSTRUCTURE
     1 OGB         1 TEMP              0 ****  ****    0 ROOT
