@<TRIPOS>MOLECULE
OGB
   23    24     1     0     0
SMALL
No Charge or Current Charge


@<TRIPOS>ATOM
      1 N           17.0940   -27.1080   -15.1370 nb         1 OGB      -0.660000
      2 C           12.9380   -28.8520   -19.8990 c3         1 OGB       0.149900
      3 O           13.5640   -27.8860   -19.0340 os         1 OGB      -0.434100
      4 C1          14.3270   -26.9010   -19.6080 c          1 OGB       0.605700
      5 C10         15.6390   -26.3550   -17.4630 ca         1 OGB       0.035000
      6 C2          14.9200   -25.9390   -18.6150 ca         1 OGB      -0.132600
      7 C3          14.7440   -24.5590   -18.8530 ca         1 OGB      -0.036000
      8 C4          15.2440   -23.6050   -17.9520 ca         1 OGB      -0.128000
      9 C5          15.9320   -24.0160   -16.8020 ca         1 OGB      -0.054000
     10 C6          16.1350   -25.3870   -16.5600 ca         1 OGB      -0.114000
     11 C7          16.8440   -25.8080   -15.4170 ca         1 OGB       0.363900
     12 C8          16.6370   -28.0330   -16.0090 ca         1 OGB       0.326900
     13 C9          15.9200   -27.7080   -17.1720 ca         1 OGB      -0.141000
     14 O1          14.4930   -26.7860   -20.8160 o          1 OGB      -0.484000
     15 H1          12.3630   -29.5770   -19.3080 h1         1 OGB       0.050367
     16 H2          12.2490   -28.3620   -20.6000 h1         1 OGB       0.050367
     17 H3          13.6900   -29.4040   -20.4770 h1         1 OGB       0.050367
     18 H4          14.2030   -24.2240   -19.7370 ha         1 OGB       0.133000
     19 H5          15.0920   -22.5450   -18.1440 ha         1 OGB       0.124000
     20 H6          16.3150   -23.2710   -16.1070 ha         1 OGB       0.120000
     21 H7          17.2320   -25.0820   -14.7040 h4         1 OGB       0.019100
     22 H8          16.8590   -29.0730   -15.7700 h4         1 OGB       0.020100
     23 H9          15.6080   -28.5150   -17.8250 ha         1 OGB       0.135000
@<TRIPOS>BOND
     1     1    11 ar  
     2     1    12 ar  
     3     2     3 1   
     4     2    15 1   
     5     2    16 1   
     6     2    17 1   
     7     3     4 1   
     8     4     6 1   
     9     4    14 2   
    10     5     6 ar  
    11     5    10 ar  
    12     5    13 ar  
    13     6     7 ar  
    14     7     8 ar  
    15     7    18 1   
    16     8     9 ar  
    17     8    19 1   
    18     9    10 ar  
    19     9    20 1   
    20    10    11 ar  
    21    11    21 1   
    22    12    13 ar  
    23    12    22 1   
    24    13    23 1   
@<TRIPOS>SUBSTRUCTURE
     1 OGB         1 TEMP              0 ****  ****    0 ROOT
