@<TRIPOS>MOLECULE
OGC
   23    23     1     0     0
SMALL
bcc


@<TRIPOS>ATOM
      1 CA          -7.4140     0.3090   -16.6350 c3         1 OGC       0.025500
      2 C           -8.3920     0.2380   -17.8350 c          1 OGC       0.953600
      3 CB          -5.9620     0.2250   -17.1360 c3         1 OGC       0.184400
      4 CG          -4.9560     0.3350   -16.0360 cc         1 OGC      -0.230900
      5 CD2         -4.1600     1.3960   -15.6970 cd         1 OGC       0.268200
      6 CE1         -3.7610    -0.1010   -14.2540 cc         1 OGC       0.360400
      7 N           -7.6900     1.5350   -15.9030 n8         1 OGC      -0.868800
      8 NE2         -3.4210     1.1170   -14.5850 nd         1 OGC      -0.690000
      9 ND1         -4.6870    -0.6230   -15.0880 na         1 OGC      -0.169900
     10 O           -8.2690     1.1520   -18.6760 o          1 OGC      -0.830800
     11 O79         -5.8320    -0.9750   -17.8710 oh         1 OGC      -0.566800
     12 HA          -7.6050    -0.5350   -15.9660 h1         1 OGC       0.048700
     13 HB2         -5.8030     1.1000   -17.7820 h1         1 OGC       0.059700
     14 HD2         -4.0940     2.3460   -16.2090 h4         1 OGC       0.031100
     15 HE1         -3.3690    -0.6640   -13.4200 h5         1 OGC       0.037100
     16 H6          -4.8250    -2.4260   -14.0870 h1         1 OGC       0.054033
     17 H7          -6.3020    -1.9540   -14.9260 h1         1 OGC       0.054033
     18 H8          -4.9220    -2.5670   -15.8460 h1         1 OGC       0.054033
     19 H2          -7.0110     1.6640   -15.1610 hn         1 OGC       0.323300
     20 H           -7.5740     2.3210   -16.5330 hn         1 OGC       0.323300
     21 H12         -4.9540    -0.9970   -18.2650 ho         1 OGC       0.378000
     22 OXT         -9.2220    -0.6880   -17.8480 o          1 OGC      -0.830800
     23 C78         -5.2170    -1.9660   -14.9910 c3         1 OGC       0.034600
@<TRIPOS>BOND
     1     1     2 1   
     2     1     3 1   
     3     1     7 1   
     4     1    12 1   
     5     2    10 1   
     6     2    22 1   
     7     3     4 1   
     8     3    11 1   
     9     3    13 1   
    10     4     5 2   
    11     4     9 1   
    12     5     8 1   
    13     5    14 1   
    14     6     8 2   
    15     6     9 1   
    16     6    15 1   
    17     7    19 1   
    18     7    20 1   
    19     9    23 1   
    20    11    21 1   
    21    16    23 1   
    22    17    23 1   
    23    18    23 1   
@<TRIPOS>SUBSTRUCTURE
     1 OGC         1 TEMP              0 ****  ****    0 ROOT
