@<TRIPOS>MOLECULE
OGC
   23    23     1     0     0
SMALL
No Charge or Current Charge


@<TRIPOS>ATOM
      1 CA          -7.4330     0.2390   -16.7180 c3         1 OGC       0.025500
      2 C           -8.3970     0.2010   -17.9740 c          1 OGC       0.953600
      3 CB          -5.9520     0.2720   -17.1990 c3         1 OGC       0.184400
      4 CG          -4.9380     0.3640   -16.0790 cc         1 OGC      -0.230900
      5 CD2         -4.0530     1.3850   -15.8330 cd         1 OGC       0.268200
      6 CE1         -3.6920    -0.0660   -14.2830 cc         1 OGC       0.360400
      7 N           -7.7070     1.3150   -15.6770 n8         1 OGC      -0.868800
      8 NE2         -3.2840     1.1150   -14.7200 nd         1 OGC      -0.690000
      9 ND1         -4.7020    -0.5680   -15.0790 na         1 OGC      -0.169900
     10 O           -8.4390     1.1790   -18.7180 o          1 OGC      -0.830800
     11 O79         -5.6620    -0.8770   -17.9960 oh         1 OGC      -0.566800
     12 HA          -7.5790    -0.7190   -16.2040 h1         1 OGC       0.048700
     13 HB2         -5.8300     1.1740   -17.8160 h1         1 OGC       0.059700
     14 HD2         -3.9280     2.3020   -16.3970 h4         1 OGC       0.031100
     15 HE1         -3.3120    -0.6000   -13.4190 h5         1 OGC       0.037100
     16 H6          -4.8190    -2.4680   -14.1600 h1         1 OGC       0.054033
     17 H7          -6.3900    -1.6740   -14.4590 h1         1 OGC       0.054033
     18 H8          -5.4740    -2.3960   -15.8180 h1         1 OGC       0.054033
     19 H2          -6.9400     1.3130   -14.9970 hn         1 OGC       0.323300
     20 H           -7.6510     2.2350   -16.1260 hn         1 OGC       0.323300
     21 H12         -4.6910    -0.8900   -18.1200 ho         1 OGC       0.378000
     22 OXT         -9.1820    -0.7390   -18.0900 o          1 OGC      -0.830800
     23 C78         -5.3890    -1.8540   -14.8690 c3         1 OGC       0.034600
@<TRIPOS>BOND
     1     1     2 1   
     2     1     3 1   
     3     1     7 1   
     4     1    12 1   
     5     2    10 1   
     6     2    22 1   
     7     3     4 1   
     8     3    11 1   
     9     3    13 1   
    10     4     5 2   
    11     4     9 1   
    12     5     8 1   
    13     5    14 1   
    14     6     8 2   
    15     6     9 1   
    16     6    15 1   
    17     7    19 1   
    18     7    20 1   
    19     9    23 1   
    20    11    21 1   
    21    16    23 1   
    22    17    23 1   
    23    18    23 1   
@<TRIPOS>SUBSTRUCTURE
     1 OGC         1 TEMP              0 ****  ****    0 ROOT
