@<TRIPOS>MOLECULE
OGE
   24    24     1     0     0
SMALL
No Charge or Current Charge


@<TRIPOS>ATOM
      1 C1           3.3340    24.9900     7.1230 c3         1 OGE       0.113000
      2 C2           5.7010    25.6680     6.5930 c          1 OGE       0.668100
      3 C3           8.2060    25.8340     6.4150 ca         1 OGE       0.513900
      4 C4           8.3720    27.0680     5.7550 ca         1 OGE      -0.182000
      5 C5           9.6700    27.4970     5.4320 ca         1 OGE      -0.024000
      6 C6          10.4870    25.4540     6.4490 ca         1 OGE       0.408900
      7 C7          10.7450    26.6700     5.7880 ca         1 OGE      -0.121900
      8 N1           6.9910    25.2650     6.8070 ns         1 OGE      -0.336900
      9 N2           9.2360    25.0370     6.7620 nb         1 OGE      -0.749000
     10 O1           5.3740    26.6640     5.9700 o          1 OGE      -0.626100
     11 O            3.0350    23.1900     8.7700 oh         1 OGE      -0.671000
     12 N            4.7930    24.8160     7.1610 ns         1 OGE      -0.515900
     13 C            2.6560    24.5370     8.4380 c3         1 OGE       0.141600
     14 Br          12.5410    27.1920     5.3800 br         1 OGE      -0.082100
     15 H1           3.0890    26.0450     6.9450 h1         1 OGE       0.063200
     16 H2           2.9320    24.4040     6.2860 h1         1 OGE       0.063200
     17 H3           7.5240    27.6900     5.4950 ha         1 OGE       0.164000
     18 H4           9.8360    28.4440     4.9230 ha         1 OGE       0.134000
     19 H5          11.3040    24.7940     6.7370 h4         1 OGE       0.033100
     20 H6           7.0990    24.4100     7.3300 hn         1 OGE       0.164000
     21 H7           2.5650    22.9550     9.6020 ho         1 OGE       0.450000
     22 H8           5.1560    24.0160     7.6630 hn         1 OGE       0.325500
     23 H9           2.9530    25.2230     9.2430 h1         1 OGE       0.033200
     24 H10          1.5660    24.6130     8.3210 h1         1 OGE       0.033200
@<TRIPOS>BOND
     1     1    12 1   
     2     1    13 1   
     3     1    15 1   
     4     1    16 1   
     5     2     8 1   
     6     2    10 2   
     7     2    12 1   
     8     3     4 ar  
     9     3     8 1   
    10     3     9 ar  
    11     4     5 ar  
    12     4    17 1   
    13     5     7 ar  
    14     5    18 1   
    15     6     7 ar  
    16     6     9 ar  
    17     6    19 1   
    18     7    14 1   
    19     8    20 1   
    20    11    13 1   
    21    11    21 1   
    22    12    22 1   
    23    13    23 1   
    24    13    24 1   
@<TRIPOS>SUBSTRUCTURE
     1 OGE         1 TEMP              0 ****  ****    0 ROOT
