@<TRIPOS>MOLECULE
OGE
   24    24     1     0     0
SMALL
abcg2


@<TRIPOS>ATOM
      1 C1           3.4090    25.0730     7.1670 c3         1 OGE       0.113000
      2 C2           5.7500    25.6660     6.7530 c          1 OGE       0.668100
      3 C3           8.2230    25.8050     6.5050 ca         1 OGE       0.513900
      4 C4           8.3120    26.9650     5.7260 ca         1 OGE      -0.182000
      5 C5           9.5650    27.3920     5.3330 ca         1 OGE      -0.024000
      6 C6          10.5010    25.5370     6.4970 ca         1 OGE       0.408900
      7 C7          10.6840    26.6690     5.7220 ca         1 OGE      -0.121900
      8 N1           7.0480    25.2490     6.9700 ns         1 OGE      -0.336900
      9 N2           9.3030    25.1220     6.8720 nb         1 OGE      -0.749000
     10 O1           5.4680    26.6700     6.1170 o          1 OGE      -0.626100
     11 O            2.8890    23.1530     8.4630 oh         1 OGE      -0.671000
     12 N            4.8300    24.8630     7.3270 ns         1 OGE      -0.515900
     13 C            2.6510    24.5410     8.3620 c3         1 OGE       0.141600
     14 BR          12.4140    27.2060     5.2160 br         1 OGE      -0.082100
     15 H1           3.2110    26.1400     7.0800 h1         1 OGE       0.063200
     16 H2           3.0400    24.6000     6.2500 h1         1 OGE       0.063200
     17 H3           7.4360    27.5210     5.4340 ha         1 OGE       0.164000
     18 H4           9.6550    28.2850     4.7290 ha         1 OGE       0.134000
     19 H5          11.3440    24.9390     6.8260 h4         1 OGE       0.033100
     20 H6           7.1960    24.4180     7.5240 hn         1 OGE       0.164000
     21 H7           2.5560    22.8460     9.3110 ho         1 OGE       0.450000
     22 H8           5.1140    23.9790     7.7220 hn         1 OGE       0.325500
     23 H9           2.9790    25.0730     9.2630 h1         1 OGE       0.033200
     24 H10          1.5870    24.7630     8.2190 h1         1 OGE       0.033200
@<TRIPOS>BOND
     1     1    12 1   
     2     1    13 1   
     3     1    15 1   
     4     1    16 1   
     5     2     8 1   
     6     2    10 2   
     7     2    12 1   
     8     3     4 ar  
     9     3     8 1   
    10     3     9 ar  
    11     4     5 ar  
    12     4    17 1   
    13     5     7 ar  
    14     5    18 1   
    15     6     7 ar  
    16     6     9 ar  
    17     6    19 1   
    18     7    14 1   
    19     8    20 1   
    20    11    13 1   
    21    11    21 1   
    22    12    22 1   
    23    13    23 1   
    24    13    24 1   
@<TRIPOS>SUBSTRUCTURE
     1 OGE         1 TEMP              0 ****  ****    0 ROOT
