@<TRIPOS>MOLECULE
OGF
   50    53     1     0     0
SMALL
abcg2


@<TRIPOS>ATOM
      1 N1           8.8000    -4.7530    26.0330 ns         1 OGF      -0.165000
      2 N3           7.9920    -0.7580    19.8860 na         1 OGF       0.064600
      3 C4          10.3470    -2.8290    23.3210 ca         1 OGF      -0.079500
      4 C5           9.8710    -1.5430    23.5540 ca         1 OGF      -0.103000
      5 C6           9.0390    -1.3120    24.6430 ca         1 OGF      -0.079500
      6 C7           8.6650    -2.3460    25.4890 ca         1 OGF      -0.153000
      7 C8          11.3170     0.4490    23.2260 c3         1 OGF       0.174300
      8 C10         13.2150    -1.0480    24.1540 cc         1 OGF      -0.118000
      9 C13          9.8260    -0.3040    21.4460 c          1 OGF       0.585100
     10 C15          6.7100     0.3990    18.5570 ca         1 OGF       0.016400
     11 C17          5.0940     2.0150    19.1940 ca         1 OGF      -0.140000
     12 C20          7.0230     0.1980    19.9110 ca         1 OGF      -0.063200
     13 O1          10.2350     0.5620    20.6800 o          1 OGF      -0.574100
     14 C14          8.7430    -1.2940    20.9910 c3         1 OGF       0.010600
     15 C19          6.3890     0.8980    20.9410 ca         1 OGF      -0.112000
     16 C18          5.4230     1.8060    20.5530 ca         1 OGF      -0.077000
     17 C16          5.7260     1.3220    18.1810 ca         1 OGF      -0.028000
     18 N5           7.5090    -0.4330    17.8070 nc         1 OGF      -0.218400
     19 N4           8.2690    -1.1060    18.6110 nd         1 OGF      -0.150400
     20 N2          10.2700    -0.4550    22.7130 n          1 OGF      -0.235400
     21 C9          12.6850    -0.1690    23.1600 cc         1 OGF      -0.146300
     22 C12         13.5560     0.0110    22.1190 cd         1 OGF      -0.208000
     23 S           15.0080    -0.8830    22.3390 ss         1 OGF       0.194000
     24 C11         14.4600    -1.5110    23.8460 cd         1 OGF      -0.247000
     25 C3           9.9700    -3.8710    24.1500 ca         1 OGF      -0.153000
     26 C2           9.1240    -3.6480    25.2460 ca         1 OGF       0.009000
     27 C1           7.9170    -4.8320    27.0950 c          1 OGF       0.658100
     28 O            7.3000    -3.8640    27.5430 o          1 OGF      -0.624100
     29 N            7.7920    -6.0770    27.6160 ns         1 OGF      -0.526900
     30 C            6.8860    -6.3470    28.7160 c3         1 OGF       0.111300
     31 H1           9.2460    -5.6150    25.7560 hn         1 OGF       0.145000
     32 H2          11.0110    -3.0130    22.4860 ha         1 OGF       0.127000
     33 H3           8.6750    -0.3100    24.8300 ha         1 OGF       0.127000
     34 H4           8.0170    -2.1560    26.3280 ha         1 OGF       0.137000
     35 H5          11.2770     1.3590    22.6360 h1         1 OGF       0.070700
     36 H6          11.0590     0.6880    24.2570 h1         1 OGF       0.070700
     37 H7          12.6830    -1.3170    25.0560 ha         1 OGF       0.135000
     38 H8           4.3280     2.7390    18.9490 ha         1 OGF       0.117000
     39 H9           8.0580    -1.5380    21.8010 h1         1 OGF       0.090200
     40 H10          9.2140    -2.2180    20.6600 h1         1 OGF       0.090200
     41 H11          6.6410     0.7420    21.9810 ha         1 OGF       0.123000
     42 H12          4.9000     2.3770    21.3100 ha         1 OGF       0.115000
     43 H13          5.4770     1.4800    17.1400 ha         1 OGF       0.133000
     44 H14         13.4160     0.6170    21.2380 h4         1 OGF       0.163000
     45 H15         15.0870    -2.1790    24.4160 h4         1 OGF       0.150000
     46 H16         10.3380    -4.8710    23.9560 ha         1 OGF       0.137000
     47 H17          8.2570    -6.8560    27.1790 hn         1 OGF       0.312500
     48 H18          6.9790    -7.3990    28.9800 h1         1 OGF       0.044033
     49 H19          7.1390    -5.7420    29.5880 h1         1 OGF       0.044033
     50 H20          5.8480    -6.1420    28.4430 h1         1 OGF       0.044033
@<TRIPOS>BOND
     1     1    26 1   
     2     1    27 1   
     3     1    31 1   
     4     2    12 1   
     5     2    14 1   
     6     2    19 1   
     7     3     4 ar  
     8     3    25 ar  
     9     3    32 1   
    10     4     5 ar  
    11     4    20 1   
    12     5     6 ar  
    13     5    33 1   
    14     6    26 ar  
    15     6    34 1   
    16     7    20 1   
    17     7    21 1   
    18     7    35 1   
    19     7    36 1   
    20     8    21 1   
    21     8    24 2   
    22     8    37 1   
    23     9    13 2   
    24     9    14 1   
    25     9    20 1   
    26    10    12 ar  
    27    10    17 ar  
    28    10    18 1   
    29    11    16 ar  
    30    11    17 ar  
    31    11    38 1   
    32    12    15 ar  
    33    14    39 1   
    34    14    40 1   
    35    15    16 ar  
    36    15    41 1   
    37    16    42 1   
    38    17    43 1   
    39    18    19 2   
    40    21    22 2   
    41    22    23 1   
    42    22    44 1   
    43    23    24 1   
    44    24    45 1   
    45    25    26 ar  
    46    25    46 1   
    47    27    28 2   
    48    27    29 1   
    49    29    30 1   
    50    29    47 1   
    51    30    48 1   
    52    30    49 1   
    53    30    50 1   
@<TRIPOS>SUBSTRUCTURE
     1 OGF         1 TEMP              0 ****  ****    0 ROOT
