@<TRIPOS>MOLECULE
OGF
   50    53     1     0     0
SMALL
No Charge or Current Charge


@<TRIPOS>ATOM
      1 N1           8.3570    -4.7250    25.9420 ns         1 OGF      -0.165000
      2 N3           8.1730    -0.9620    19.6630 na         1 OGF       0.064600
      3 C4          10.1390    -3.0020    23.1680 ca         1 OGF      -0.079500
      4 C5          10.0090    -1.6410    23.5070 ca         1 OGF      -0.103000
      5 C6           9.2280    -1.3000    24.6290 ca         1 OGF      -0.079500
      6 C7           8.6850    -2.2980    25.4570 ca         1 OGF      -0.153000
      7 C8          11.2370     0.5050    23.1320 c3         1 OGF       0.174300
      8 C10         13.3100    -0.6940    24.0270 cc         1 OGF      -0.118000
      9 C13         10.1270    -0.6040    21.1960 c          1 OGF       0.585100
     10 C15          6.6640     0.2210    18.6970 ca         1 OGF       0.016400
     11 C17          5.1930     1.8400    19.7270 ca         1 OGF      -0.140000
     12 C20          7.2260    -0.0200    19.9110 ca         1 OGF      -0.063200
     13 O1          10.6720     0.1880    20.4320 o          1 OGF      -0.574100
     14 C14          9.0450    -1.5690    20.6780 c3         1 OGF       0.010600
     15 C19          6.8290     0.6260    21.0900 ca         1 OGF      -0.112000
     16 C18          5.7900     1.5750    20.9840 ca         1 OGF      -0.077000
     17 C16          5.6290     1.1600    18.5660 ca         1 OGF      -0.028000
     18 N5           7.2610    -0.5690    17.7180 nc         1 OGF      -0.218400
     19 N4           8.1960    -1.3060    18.3260 nd         1 OGF      -0.150400
     20 N2          10.4250    -0.6100    22.5870 n          1 OGF      -0.235400
     21 C9          12.7100     0.1790    23.0810 cc         1 OGF      -0.146300
     22 C12         13.6160     0.6480    22.1620 cd         1 OGF      -0.208000
     23 S           15.2470     0.0180    22.4490 ss         1 OGF       0.194000
     24 C11         14.6520    -0.8930    23.8440 cd         1 OGF      -0.247000
     25 C3           9.5980    -4.0000    23.9960 ca         1 OGF      -0.153000
     26 C2           8.8780    -3.6620    25.1550 ca         1 OGF       0.009000
     27 C1           7.6920    -4.7420    27.1580 c          1 OGF       0.658100
     28 O            7.4280    -3.7600    27.8370 o          1 OGF      -0.624100
     29 N            7.3480    -6.0130    27.5500 ns         1 OGF      -0.526900
     30 C            6.6400    -6.3270    28.7940 c3         1 OGF       0.111300
     31 H1           8.5000    -5.6380    25.5340 hn         1 OGF       0.145000
     32 H2          10.6910    -3.2950    22.2770 ha         1 OGF       0.127000
     33 H3           9.0280    -0.2570    24.8640 ha         1 OGF       0.127000
     34 H4           8.1020    -1.9890    26.3180 ha         1 OGF       0.137000
     35 H5          11.0390     1.4280    22.5700 h1         1 OGF       0.070700
     36 H6          10.9540     0.6990    24.1730 h1         1 OGF       0.070700
     37 H7          12.7360    -1.1620    24.8240 ha         1 OGF       0.135000
     38 H8           4.3930     2.5730    19.6530 ha         1 OGF       0.117000
     39 H9           8.4110    -1.8850    21.5120 h1         1 OGF       0.090200
     40 H10          9.5420    -2.4520    20.2630 h1         1 OGF       0.090200
     41 H11          7.2970     0.4100    22.0480 ha         1 OGF       0.123000
     42 H12          5.4460     2.1040    21.8710 ha         1 OGF       0.115000
     43 H13          5.1760     1.3580    17.5980 ha         1 OGF       0.133000
     44 H14         13.4370     1.3180    21.3300 h4         1 OGF       0.163000
     45 H15         15.3270    -1.5090    24.4250 h4         1 OGF       0.150000
     46 H16          9.7390    -5.0460    23.7290 ha         1 OGF       0.137000
     47 H17          7.6030    -6.7750    26.9330 hn         1 OGF       0.312500
     48 H18          6.4880    -7.4120    28.8670 h1         1 OGF       0.044033
     49 H19          7.2330    -5.9870    29.6530 h1         1 OGF       0.044033
     50 H20          5.6650    -5.8240    28.8030 h1         1 OGF       0.044033
@<TRIPOS>BOND
     1     1    26 1   
     2     1    27 1   
     3     1    31 1   
     4     2    12 1   
     5     2    14 1   
     6     2    19 1   
     7     3     4 ar  
     8     3    25 ar  
     9     3    32 1   
    10     4     5 ar  
    11     4    20 1   
    12     5     6 ar  
    13     5    33 1   
    14     6    26 ar  
    15     6    34 1   
    16     7    20 1   
    17     7    21 1   
    18     7    35 1   
    19     7    36 1   
    20     8    21 1   
    21     8    24 2   
    22     8    37 1   
    23     9    13 2   
    24     9    14 1   
    25     9    20 1   
    26    10    12 ar  
    27    10    17 ar  
    28    10    18 1   
    29    11    16 ar  
    30    11    17 ar  
    31    11    38 1   
    32    12    15 ar  
    33    14    39 1   
    34    14    40 1   
    35    15    16 ar  
    36    15    41 1   
    37    16    42 1   
    38    17    43 1   
    39    18    19 2   
    40    21    22 2   
    41    22    23 1   
    42    22    44 1   
    43    23    24 1   
    44    24    45 1   
    45    25    26 ar  
    46    25    46 1   
    47    27    28 2   
    48    27    29 1   
    49    29    30 1   
    50    29    47 1   
    51    30    48 1   
    52    30    49 1   
    53    30    50 1   
@<TRIPOS>SUBSTRUCTURE
     1 OGF         1 TEMP              0 ****  ****    0 ROOT
