@<TRIPOS>MOLECULE
OGG
   24    23     1     0     0
SMALL
No Charge or Current Charge


@<TRIPOS>ATOM
      1 NB           0.8150    -0.2980     4.8430 nt         1 OGG      -0.620000
      2 CC           0.6480     0.1920     3.5910 c          1 OGG       0.605600
      3 OL           1.4290     1.0270     3.1590 o          1 OGG      -0.566100
      4 CD          -0.5620    -0.3740     2.8000 c3         1 OGG       0.074600
      5 OE          -0.6760     0.1850     1.4700 os         1 OGG      -0.405000
      6 CF          -1.7920    -0.3130     0.7050 c3         1 OGG       0.159600
      7 CG          -1.7840     0.3570    -0.6900 c3         1 OGG       0.159600
      8 OH          -0.6880    -0.1760    -1.4590 os         1 OGG      -0.405000
      9 CI          -0.5610     0.3800    -2.7900 c3         1 OGG       0.074600
     10 CJ           0.6270    -0.2240    -3.5860 c          1 OGG       0.605600
     11 OM           1.3830    -1.0840    -3.1570 o          1 OGG      -0.566100
     12 NK           0.8050     0.2610    -4.8390 nt         1 OGG      -0.620000
     13 HNB1         1.5860     0.0340     5.4040 hn         1 OGG       0.313000
     14 HNB2         0.1740    -0.9890     5.2080 hn         1 OGG       0.313000
     15 HD1         -1.4670    -0.1640     3.3840 h1         1 OGG       0.032200
     16 HD2         -0.4440    -1.4640     2.7490 h1         1 OGG       0.032200
     17 HF1         -2.7360    -0.0700     1.2090 h1         1 OGG       0.030450
     18 HF2         -1.7360    -1.4030     0.5890 h1         1 OGG       0.030450
     19 HG1         -1.6930     1.4450    -0.5740 h1         1 OGG       0.030450
     20 HG2         -2.7380     0.1440    -1.1900 h1         1 OGG       0.030450
     21 HI1         -0.4090     1.4650    -2.7400 h1         1 OGG       0.032200
     22 HI2         -1.4750     0.1980    -3.3700 h1         1 OGG       0.032200
     23 HNK1         1.5620    -0.0960    -5.4030 hn         1 OGG       0.313000
     24 HNK2         0.1840     0.9710    -5.2010 hn         1 OGG       0.313000
@<TRIPOS>BOND
     1     1     2 1   
     2     1    13 1   
     3     1    14 1   
     4     2     3 2   
     5     2     4 1   
     6     4     5 1   
     7     4    15 1   
     8     4    16 1   
     9     5     6 1   
    10     6     7 1   
    11     6    17 1   
    12     6    18 1   
    13     7     8 1   
    14     7    19 1   
    15     7    20 1   
    16     8     9 1   
    17     9    10 1   
    18     9    21 1   
    19     9    22 1   
    20    10    11 2   
    21    10    12 1   
    22    12    23 1   
    23    12    24 1   
@<TRIPOS>SUBSTRUCTURE
     1 OGG         1 TEMP              0 ****  ****    0 ROOT
