@<TRIPOS>MOLECULE
OGG
   24    23     1     0     0
SMALL
bcc


@<TRIPOS>ATOM
      1 NB           0.7990    -0.3210     4.6760 nt         1 OGG      -0.687000
      2 CC           0.6170     0.2120     3.4590 c          1 OGG       0.672600
      3 OL           1.3200     1.0900     2.9910 o          1 OGG      -0.566100
      4 CD          -0.5700    -0.3720     2.7110 c3         1 OGG       0.051400
      5 OE          -0.5950     0.1430     1.4180 os         1 OGG      -0.358600
      6 CF          -1.7190    -0.2910     0.6920 c3         1 OGG       0.136400
      7 CG          -1.7110     0.3330    -0.6790 c3         1 OGG       0.136400
      8 OH          -0.6170    -0.1560    -1.4160 os         1 OGG      -0.358600
      9 CI          -0.5590     0.3840    -2.6980 c3         1 OGG       0.051400
     10 CJ           0.6130    -0.2300    -3.4460 c          1 OGG       0.672600
     11 OM           1.3320    -1.0810    -2.9530 o          1 OGG      -0.566100
     12 NK           0.7650     0.2490    -4.6890 nt         1 OGG      -0.687000
     13 HNB1         1.5290     0.0190     5.2810 hn         1 OGG       0.313000
     14 HNB2         0.2040    -1.0480     5.0360 hn         1 OGG       0.313000
     15 HD1         -1.4850    -0.1210     3.2680 h1         1 OGG       0.032200
     16 HD2         -0.4980    -1.4700     2.7160 h1         1 OGG       0.032200
     17 HF1         -2.6510     0.0050     1.1940 h1         1 OGG       0.030450
     18 HF2         -1.7360    -1.3870     0.6070 h1         1 OGG       0.030450
     19 HG1         -1.6730     1.4280    -0.5920 h1         1 OGG       0.030450
     20 HG2         -2.6610     0.0830    -1.1700 h1         1 OGG       0.030450
     21 HI1         -0.4370     1.4770    -2.6780 h1         1 OGG       0.032200
     22 HI2         -1.4800     0.1870    -3.2680 h1         1 OGG       0.032200
     23 HNK1         1.5040    -0.0900    -5.2820 hn         1 OGG       0.313000
     24 HNK2         0.1620     0.9610    -5.0640 hn         1 OGG       0.313000
@<TRIPOS>BOND
     1     1     2 1   
     2     1    13 1   
     3     1    14 1   
     4     2     3 2   
     5     2     4 1   
     6     4     5 1   
     7     4    15 1   
     8     4    16 1   
     9     5     6 1   
    10     6     7 1   
    11     6    17 1   
    12     6    18 1   
    13     7     8 1   
    14     7    19 1   
    15     7    20 1   
    16     8     9 1   
    17     9    10 1   
    18     9    21 1   
    19     9    22 1   
    20    10    11 2   
    21    10    12 1   
    22    12    23 1   
    23    12    24 1   
@<TRIPOS>SUBSTRUCTURE
     1 OGG         1 TEMP              0 ****  ****    0 ROOT
