@<TRIPOS>MOLECULE
OGJ
   62    66     1     0     0
SMALL
abcg2


@<TRIPOS>ATOM
      1 C4           2.2960     0.0160     1.4990 c6         1 OGJ       0.273800
      2 C14          0.9350    -0.4550     1.0400 ca         1 OGJ      -0.159300
      3 C11          1.4520     4.6100     0.8230 ca         1 OGJ      -0.110000
      4 C7           2.1620     2.3560     1.2660 ca         1 OGJ       0.110100
      5 C8           2.8630     2.3240     0.0590 ca         1 OGJ      -0.087800
      6 C9           2.8390     3.4520    -0.7610 ca         1 OGJ      -0.164000
      7 C10          2.1370     4.5910    -0.3890 ca         1 OGJ       0.107100
      8 C12          1.4640     3.4920     1.6430 ca         1 OGJ      -0.100000
      9 C3           3.3250    -0.0130     0.4000 ce         1 OGJ      -0.102400
     10 C2           3.6050     1.1070    -0.2880 cf         1 OGJ      -0.018400
     11 O6           2.2080     1.3000     2.1120 os         1 OGJ      -0.333100
     12 O13          2.0870     5.7000    -1.1620 oh         1 OGJ      -0.535100
     13 C15          0.1030    -1.1260     1.9360 ca         1 OGJ      -0.046500
     14 C16         -1.1740    -1.5140     1.5810 ca         1 OGJ      -0.180000
     15 C17         -1.6630    -1.2290     0.3040 ca         1 OGJ       0.156100
     16 C18         -0.8410    -0.5670    -0.6060 ca         1 OGJ      -0.180000
     17 C19          0.4440    -0.1940    -0.2320 ca         1 OGJ      -0.046500
     18 O20         -2.9180    -1.6330     0.0450 os         1 OGJ      -0.327100
     19 C21         -3.5090    -1.2860    -1.1950 c3         1 OGJ       0.166600
     20 C22         -4.9410    -1.7670    -1.2000 c3         1 OGJ       0.168800
     21 N23         -5.7210    -1.1580    -0.1570 nq         1 OGJ      -0.702600
     22 C24         -7.1440    -1.4870    -0.0800 cy         1 OGJ       0.153800
     23 C25         -7.4250    -0.0300     0.3220 cy         1 OGJ      -0.136700
     24 C26         -6.0300     0.2710    -0.2500 cy         1 OGJ       0.153800
     25 C27         -8.6200     0.6240    -0.3030 c3         1 OGJ       0.195600
     26 F28         -8.6460     1.9800     0.0290 f          1 OGJ      -0.268000
     27 C29          3.9100    -1.3380     0.1180 ca         1 OGJ      -0.005800
     28 C30          4.5860    -2.0420     1.1170 ca         1 OGJ      -0.138000
     29 C31          5.1220    -3.2890     0.8380 ca         1 OGJ      -0.069000
     30 C32          4.9850    -3.8590    -0.4200 ca         1 OGJ      -0.203000
     31 C33          4.3000    -3.1670    -1.4150 ca         1 OGJ       0.138100
     32 C34          3.7620    -1.9120    -1.1410 ca         1 OGJ      -0.133000
     33 O35          4.1240    -3.6630    -2.6560 oh         1 OGJ      -0.535100
     34 H1           2.6250    -0.6400     2.3100 h1         1 OGJ       0.087700
     35 H2           0.9030     5.4950     1.1210 ha         1 OGJ       0.131000
     36 H3           3.3740     3.4410    -1.7050 ha         1 OGJ       0.113000
     37 H4           0.9300     3.5060     2.5850 ha         1 OGJ       0.132000
     38 H6           4.1530     1.2710    -2.3650 hc         1 OGJ       0.048033
     39 H7           5.2600     2.0640    -1.2580 hc         1 OGJ       0.048033
     40 H8           5.2650     0.3070    -1.4020 hc         1 OGJ       0.048033
     41 H10          2.6040     5.5710    -1.9640 ho         1 OGJ       0.461000
     42 H11          0.4610    -1.3520     2.9340 ha         1 OGJ       0.115000
     43 H12         -1.8040    -2.0390     2.2890 ha         1 OGJ       0.122000
     44 H13         -1.1770    -0.3360    -1.6070 ha         1 OGJ       0.122000
     45 H14          1.0660     0.3070    -0.9640 ha         1 OGJ       0.115000
     46 H15         -3.4710    -0.2000    -1.3430 h1         1 OGJ       0.035700
     47 H16         -2.9690    -1.7480    -2.0290 h1         1 OGJ       0.035700
     48 H17         -5.3450    -1.5540    -2.2040 h1         1 OGJ       0.042700
     49 H18         -4.9690    -2.8530    -1.0730 h1         1 OGJ       0.042700
     50 H20         -7.5880    -1.7340    -1.0550 h1         1 OGJ       0.049950
     51 H21         -7.4070    -2.2740     0.6300 h1         1 OGJ       0.049950
     52 H22         -7.4520     0.0870     1.4080 hc         1 OGJ       0.087700
     53 H23         -5.3740     0.9340     0.3170 h1         1 OGJ       0.049950
     54 H24         -6.0870     0.6360    -1.2870 h1         1 OGJ       0.049950
     55 H25         -8.5900     0.5450    -1.3930 h1         1 OGJ       0.043200
     56 H26         -9.5470     0.1710     0.0540 h1         1 OGJ       0.043200
     57 H27          4.7130    -1.6090     2.1010 ha         1 OGJ       0.119000
     58 H28          5.6590    -3.8280     1.6070 ha         1 OGJ       0.114000
     59 H29          5.4060    -4.8370    -0.6230 ha         1 OGJ       0.113000
     60 H30          3.2160    -1.3870    -1.9150 ha         1 OGJ       0.130000
     61 H31          4.5440    -4.5270    -2.7350 ho         1 OGJ       0.465000
     62 C1           4.6250     1.1850    -1.3830 c3         1 OGJ      -0.053900
@<TRIPOS>BOND
     1     1     2 1   
     2     1     9 1   
     3     1    11 1   
     4     1    34 1   
     5     2    13 ar  
     6     2    17 ar  
     7     3     7 ar  
     8     3     8 ar  
     9     3    35 1   
    10     4     5 ar  
    11     4     8 ar  
    12     4    11 1   
    13     5     6 ar  
    14     5    10 1   
    15     6     7 ar  
    16     6    36 1   
    17     7    12 1   
    18     8    37 1   
    19     9    10 2   
    20     9    27 1   
    21    10    62 1   
    22    12    41 1   
    23    13    14 ar  
    24    13    42 1   
    25    14    15 ar  
    26    14    43 1   
    27    15    16 ar  
    28    15    18 1   
    29    16    17 ar  
    30    16    44 1   
    31    17    45 1   
    32    18    19 1   
    33    19    20 1   
    34    19    46 1   
    35    19    47 1   
    36    20    21 1   
    37    20    48 1   
    38    20    49 1   
    39    21    22 1   
    40    21    24 1   
    41    22    23 1   
    42    22    50 1   
    43    22    51 1   
    44    23    24 1   
    45    23    25 1   
    46    23    52 1   
    47    24    53 1   
    48    24    54 1   
    49    25    26 1   
    50    25    55 1   
    51    25    56 1   
    52    27    28 ar  
    53    27    32 ar  
    54    28    29 ar  
    55    28    57 1   
    56    29    30 ar  
    57    29    58 1   
    58    30    31 ar  
    59    30    59 1   
    60    31    32 ar  
    61    31    33 1   
    62    32    60 1   
    63    33    61 1   
    64    38    62 1   
    65    39    62 1   
    66    40    62 1   
@<TRIPOS>SUBSTRUCTURE
     1 OGJ         1 TEMP              0 ****  ****    0 ROOT
