@<TRIPOS>MOLECULE
OGJ
   62    66     1     0     0
SMALL
No Charge or Current Charge


@<TRIPOS>ATOM
      1 C4           2.2640     0.2010     1.5100 c6         1 OGJ       0.273800
      2 C14          0.8720    -0.2250     1.0170 ca         1 OGJ      -0.159300
      3 C11          2.0670     4.9870     0.7130 ca         1 OGJ      -0.110000
      4 C7           2.3920     2.6230     1.1870 ca         1 OGJ       0.110100
      5 C8           3.1560     2.4760     0.0070 ca         1 OGJ      -0.087800
      6 C9           3.3440     3.6020    -0.8310 ca         1 OGJ      -0.164000
      7 C10          2.7990     4.8480    -0.4750 ca         1 OGJ       0.107100
      8 C12          1.8650     3.8740     1.5460 ca         1 OGJ      -0.100000
      9 C3           3.3350     0.0350     0.4240 ce         1 OGJ      -0.102400
     10 C2           3.7130     1.1360    -0.2860 cf         1 OGJ      -0.018400
     11 O6           2.1790     1.5510     2.0270 os         1 OGJ      -0.333100
     12 O13          2.9840     5.9310    -1.2830 oh         1 OGJ      -0.535100
     13 C15          0.1270    -1.1640     1.7570 ca         1 OGJ      -0.046500
     14 C16         -1.1430    -1.5690     1.3120 ca         1 OGJ      -0.180000
     15 C17         -1.6850    -1.0440     0.1290 ca         1 OGJ       0.156100
     16 C18         -0.9430    -0.1030    -0.6160 ca         1 OGJ      -0.180000
     17 C19          0.3280     0.3020    -0.1730 ca         1 OGJ      -0.046500
     18 O20         -2.9360    -1.4800    -0.2560 os         1 OGJ      -0.327100
     19 C21         -3.5820    -0.9980    -1.4520 c3         1 OGJ       0.166600
     20 C22         -4.9700    -1.6770    -1.5900 c3         1 OGJ       0.168800
     21 N23         -5.9250    -1.3120    -0.5270 nq         1 OGJ      -0.702600
     22 C24         -7.3320    -1.8060    -0.5500 cy         1 OGJ       0.153800
     23 C25         -7.5970    -0.6150     0.4300 cy         1 OGJ      -0.136700
     24 C26         -6.4440     0.0780    -0.3700 cy         1 OGJ       0.153800
     25 C27         -8.9850     0.0330     0.4290 c3         1 OGJ       0.195600
     26 F28         -8.9210     1.1700     1.1650 f          1 OGJ      -0.268000
     27 C29          3.8270    -1.3560     0.2280 ca         1 OGJ      -0.005800
     28 C30          4.5450    -2.0110     1.2460 ca         1 OGJ      -0.138000
     29 C31          5.0000    -3.3270     1.0580 ca         1 OGJ      -0.069000
     30 C32          4.7370    -3.9950    -0.1500 ca         1 OGJ      -0.203000
     31 C33          4.0190    -3.3460    -1.1670 ca         1 OGJ       0.138100
     32 C34          3.5650    -2.0310    -0.9780 ca         1 OGJ      -0.133000
     33 O35          3.7610    -3.9900    -2.3390 oh         1 OGJ      -0.535100
     34 H1           2.5320    -0.4440     2.3590 h1         1 OGJ       0.087700
     35 H2           1.6520     5.9540     0.9870 ha         1 OGJ       0.131000
     36 H3           3.9030     3.5170    -1.7580 ha         1 OGJ       0.113000
     37 H4           1.2940     3.9760     2.4650 ha         1 OGJ       0.132000
     38 H6           4.3580     1.1240    -2.3630 hc         1 OGJ       0.048033
     39 H7           5.5090     1.9020    -1.2580 hc         1 OGJ       0.048033
     40 H8           5.3860     0.1550    -1.3030 hc         1 OGJ       0.048033
     41 H10          3.5150     5.6550    -2.0600 ho         1 OGJ       0.461000
     42 H11          0.5290    -1.5840     2.6760 ha         1 OGJ       0.115000
     43 H12         -1.7120    -2.2940     1.8880 ha         1 OGJ       0.122000
     44 H13         -1.3310     0.3220    -1.5360 ha         1 OGJ       0.122000
     45 H14          0.8870     1.0270    -0.7590 ha         1 OGJ       0.115000
     46 H15         -3.7110     0.0910    -1.4150 h1         1 OGJ       0.035700
     47 H16         -2.9800    -1.2440    -2.3360 h1         1 OGJ       0.035700
     48 H17         -5.4000    -1.3990    -2.5610 h1         1 OGJ       0.042700
     49 H18         -4.8330    -2.7670    -1.5870 h1         1 OGJ       0.042700
     50 H20         -7.8440    -1.7120    -1.5170 h1         1 OGJ       0.049950
     51 H21         -7.5010    -2.8030    -0.1260 h1         1 OGJ       0.049950
     52 H22         -7.3280    -0.8440     1.4680 hc         1 OGJ       0.087700
     53 H23         -5.8210     0.7630     0.2160 h1         1 OGJ       0.049950
     54 H24         -6.7730     0.5610    -1.2990 h1         1 OGJ       0.049950
     55 H25         -9.2850     0.2820    -0.5970 h1         1 OGJ       0.043200
     56 H26         -9.7170    -0.6500     0.8780 h1         1 OGJ       0.043200
     57 H27          4.7570    -1.4970     2.1810 ha         1 OGJ       0.119000
     58 H28          5.5570    -3.8280     1.8480 ha         1 OGJ       0.114000
     59 H29          5.0920    -5.0140    -0.2880 ha         1 OGJ       0.113000
     60 H30          3.0060    -1.5350    -1.7670 ha         1 OGJ       0.130000
     61 H31          4.1500    -4.8890    -2.2890 ho         1 OGJ       0.465000
     62 C1           4.7960     1.0760    -1.3590 c3         1 OGJ      -0.053900
@<TRIPOS>BOND
     1     1     2 1   
     2     1     9 1   
     3     1    11 1   
     4     1    34 1   
     5     2    13 ar  
     6     2    17 ar  
     7     3     7 ar  
     8     3     8 ar  
     9     3    35 1   
    10     4     5 ar  
    11     4     8 ar  
    12     4    11 1   
    13     5     6 ar  
    14     5    10 1   
    15     6     7 ar  
    16     6    36 1   
    17     7    12 1   
    18     8    37 1   
    19     9    10 2   
    20     9    27 1   
    21    10    62 1   
    22    12    41 1   
    23    13    14 ar  
    24    13    42 1   
    25    14    15 ar  
    26    14    43 1   
    27    15    16 ar  
    28    15    18 1   
    29    16    17 ar  
    30    16    44 1   
    31    17    45 1   
    32    18    19 1   
    33    19    20 1   
    34    19    46 1   
    35    19    47 1   
    36    20    21 1   
    37    20    48 1   
    38    20    49 1   
    39    21    22 1   
    40    21    24 1   
    41    22    23 1   
    42    22    50 1   
    43    22    51 1   
    44    23    24 1   
    45    23    25 1   
    46    23    52 1   
    47    24    53 1   
    48    24    54 1   
    49    25    26 1   
    50    25    55 1   
    51    25    56 1   
    52    27    28 ar  
    53    27    32 ar  
    54    28    29 ar  
    55    28    57 1   
    56    29    30 ar  
    57    29    58 1   
    58    30    31 ar  
    59    30    59 1   
    60    31    32 ar  
    61    31    33 1   
    62    32    60 1   
    63    33    61 1   
    64    38    62 1   
    65    39    62 1   
    66    40    62 1   
@<TRIPOS>SUBSTRUCTURE
     1 OGJ         1 TEMP              0 ****  ****    0 ROOT
