@<TRIPOS>MOLECULE
OGK
   49    51     1     0     0
SMALL
abcg2


@<TRIPOS>ATOM
      1 C01         -0.8850     4.0270     0.1100 c3         1 OGK      -0.096100
      2 C02         -2.0690     3.1560    -0.2920 c3         1 OGK      -0.059400
      3 C03         -1.7890     1.6570    -0.2070 c6         1 OGK      -0.074700
      4 C04         -1.4770     1.1970     1.2120 c6         1 OGK      -0.055400
      5 C05         -1.1020    -0.2890     1.2570 c6         1 OGK      -0.135700
      6 C06          0.2460    -0.5470     0.5750 c          1 OGK       0.609100
      7 O07          0.3750    -1.3380    -0.3470 o          1 OGK      -0.607100
      8 N08          1.2890     0.1170     1.1080 ns         1 OGK      -0.445900
      9 C09          2.5800     0.1370     0.4970 cx         1 OGK      -0.058600
     10 C10          2.7270     1.0750    -0.7060 c          1 OGK       0.741000
     11 O11          3.8850     1.2970    -1.1160 o          1 OGK      -0.722500
     12 O12          1.6760     1.5540    -1.1700 o          1 OGK      -0.722500
     13 C13          3.7480    -0.0130     1.4390 cx         1 OGK      -0.143400
     14 C14          3.3420    -1.1630     0.5810 cx         1 OGK      -0.087700
     15 C15          4.2070    -1.7180    -0.5190 c3         1 OGK      -0.050400
     16 C16          5.2420    -2.6940     0.0250 c3         1 OGK      -0.080100
     17 C17         -2.1950    -1.1560     0.6390 c5         1 OGK      -0.042700
     18 C18         -3.4760    -1.3020     1.4740 c5         1 OGK      -0.076400
     19 C19         -4.4820    -1.8750     0.4770 c5         1 OGK      -0.195400
     20 C20         -4.0280    -1.3710    -0.8790 c          1 OGK       0.578100
     21 O21         -4.6380    -1.5020    -1.9150 o          1 OGK      -0.535100
     22 C22         -2.7040    -0.6590    -0.7190 c5         1 OGK      -0.158700
     23 C23         -2.9740     0.8550    -0.7380 c6         1 OGK      -0.054400
     24 H01         -0.6780     3.9680     1.1790 hc         1 OGK       0.038033
     25 H01A         0.0210     3.7160    -0.4140 hc         1 OGK       0.038033
     26 H02         -2.9400     3.4050     0.3260 hc         1 OGK       0.021700
     27 H03         -0.9110     1.4510    -0.8310 hc         1 OGK       0.117700
     28 H04         -0.6850     1.8080     1.6490 hc         1 OGK       0.032200
     29 H04A        -2.3550     1.3640     1.8470 hc         1 OGK       0.032200
     30 H05         -0.9810    -0.5810     2.3080 hc         1 OGK       0.046700
     31 HN08         1.0980     0.8310     1.7920 hn         1 OGK       0.293500
     32 H13          4.6450     0.5300     1.1730 hc         1 OGK       0.062200
     33 H13A         3.5430    -0.0600     2.5020 hc         1 OGK       0.062200
     34 H14          2.7900    -1.9350     1.1090 hc         1 OGK       0.048700
     35 H15          3.5640    -2.2270    -1.2450 hc         1 OGK       0.065700
     36 H15A         4.6980    -0.9070    -1.0540 hc         1 OGK       0.065700
     37 H16          5.8410    -3.1280    -0.7770 hc         1 OGK       0.014033
     38 H16A         5.9250    -2.1950     0.7150 hc         1 OGK       0.014033
     39 H16B         4.7710    -3.5160     0.5670 hc         1 OGK       0.014033
     40 H17         -1.7950    -2.1640     0.4950 hc         1 OGK       0.067700
     41 H18         -3.3250    -1.9500     2.3370 hc         1 OGK       0.041200
     42 H18A        -3.8260    -0.3390     1.8510 hc         1 OGK       0.041200
     43 H19         -4.4280    -2.9690     0.4550 hc         1 OGK       0.061200
     44 H19A        -5.5240    -1.6140     0.6710 hc         1 OGK       0.061200
     45 H22         -2.0180    -0.9040    -1.5320 hc         1 OGK       0.112700
     46 H23         -3.8560     1.1020    -0.1330 hc         1 OGK       0.033200
     47 H23A        -3.2150     1.1550    -1.7610 hc         1 OGK       0.033200
     48 H26         -1.0710     5.0760    -0.1250 hc         1 OGK       0.038033
     49 H27         -2.3540     3.3930    -1.3220 hc         1 OGK       0.021700
@<TRIPOS>BOND
     1     1     2 1   
     2     1    24 1   
     3     1    25 1   
     4     1    48 1   
     5     2     3 1   
     6     2    26 1   
     7     2    49 1   
     8     3     4 1   
     9     3    23 1   
    10     3    27 1   
    11     4     5 1   
    12     4    28 1   
    13     4    29 1   
    14     5     6 1   
    15     5    17 1   
    16     5    30 1   
    17     6     7 2   
    18     6     8 1   
    19     8     9 1   
    20     8    31 1   
    21     9    10 1   
    22     9    13 1   
    23     9    14 1   
    24    10    11 1   
    25    10    12 1   
    26    13    14 1   
    27    13    32 1   
    28    13    33 1   
    29    14    15 1   
    30    14    34 1   
    31    15    16 1   
    32    15    35 1   
    33    15    36 1   
    34    16    37 1   
    35    16    38 1   
    36    16    39 1   
    37    17    18 1   
    38    17    22 1   
    39    17    40 1   
    40    18    19 1   
    41    18    41 1   
    42    18    42 1   
    43    19    20 1   
    44    19    43 1   
    45    19    44 1   
    46    20    21 2   
    47    20    22 1   
    48    22    23 1   
    49    22    45 1   
    50    23    46 1   
    51    23    47 1   
@<TRIPOS>SUBSTRUCTURE
     1 OGK         1 TEMP              0 ****  ****    0 ROOT
