@<TRIPOS>MOLECULE
OGK
   49    51     1     0     0
SMALL
No Charge or Current Charge


@<TRIPOS>ATOM
      1 C01         -1.5060     4.3570    -0.3610 c3         1 OGK      -0.096100
      2 C02         -2.6000     3.2780    -0.5040 c3         1 OGK      -0.059400
      3 C03         -2.1060     1.8020    -0.3890 c6         1 OGK      -0.074700
      4 C04         -1.5050     1.4820     1.0150 c6         1 OGK      -0.055400
      5 C05         -0.9820     0.0190     1.1070 c6         1 OGK      -0.135700
      6 C06          0.3860    -0.1350     0.3960 c          1 OGK       0.609100
      7 O07          0.4860    -0.5060    -0.7660 o          1 OGK      -0.607100
      8 N08          1.4880     0.0540     1.2090 ns         1 OGK      -0.445900
      9 C09          2.8740    -0.0480     0.7830 cx         1 OGK      -0.058600
     10 C10          3.4760     1.1770     0.0590 c          1 OGK       0.741000
     11 O11          3.9960     2.0490     0.7430 o          1 OGK      -0.722500
     12 O12          3.3560     1.2660    -1.1560 o          1 OGK      -0.722500
     13 C13          3.7810    -0.7920     1.7510 cx         1 OGK      -0.143400
     14 C14          3.3880    -1.4420     0.4510 cx         1 OGK      -0.087700
     15 C15          4.4320    -1.7120    -0.6300 c3         1 OGK      -0.050400
     16 C16          5.1590    -3.0550    -0.4340 c3         1 OGK      -0.080100
     17 C17         -2.0530    -1.0280     0.6850 c5         1 OGK      -0.042700
     18 C18         -3.2260    -1.2600     1.6990 c5         1 OGK      -0.076400
     19 C19         -4.4310    -1.7040     0.8070 c5         1 OGK      -0.195400
     20 C20         -3.9260    -1.6940    -0.6400 c          1 OGK       0.578100
     21 O21         -4.1230    -2.5420    -1.5020 o          1 OGK      -0.535100
     22 C22         -2.7930    -0.6680    -0.6370 c5         1 OGK      -0.158700
     23 C23         -3.2640     0.8150    -0.7120 c6         1 OGK      -0.054400
     24 H01         -1.0910     4.3710     0.6530 hc         1 OGK       0.038033
     25 H01A        -0.6890     4.1790    -1.0710 hc         1 OGK       0.038033
     26 H02         -3.3780     3.4710     0.2450 hc         1 OGK       0.021700
     27 H03         -1.3220     1.6780    -1.1500 hc         1 OGK       0.117700
     28 H04         -0.6820     2.1700     1.2480 hc         1 OGK       0.032200
     29 H04A        -2.2690     1.6530     1.7860 hc         1 OGK       0.032200
     30 H05         -0.7660    -0.1140     2.1770 hc         1 OGK       0.046700
     31 HN08         1.2900     0.3330     2.1620 hn         1 OGK       0.293500
     32 H13          4.8070    -0.4470     1.8560 hc         1 OGK       0.062200
     33 H13A         3.3450    -1.1900     2.6640 hc         1 OGK       0.062200
     34 H14          2.6590    -2.2470     0.5140 hc         1 OGK       0.048700
     35 H15          3.9460    -1.7120    -1.6140 hc         1 OGK       0.065700
     36 H15A         5.1820    -0.9110    -0.6530 hc         1 OGK       0.065700
     37 H16          5.8970    -3.2110    -1.2300 hc         1 OGK       0.014033
     38 H16A         5.6840    -3.0740     0.5290 hc         1 OGK       0.014033
     39 H16B         4.4480    -3.8890    -0.4570 hc         1 OGK       0.014033
     40 H17         -1.5080    -1.9740     0.5620 hc         1 OGK       0.067700
     41 H18         -2.9650    -2.0190     2.4460 hc         1 OGK       0.041200
     42 H18A        -3.4730    -0.3480     2.2550 hc         1 OGK       0.041200
     43 H19         -4.8600    -2.6770     1.0670 hc         1 OGK       0.061200
     44 H19A        -5.2070    -0.9360     0.8930 hc         1 OGK       0.061200
     45 H22         -2.1610    -0.8420    -1.5150 hc         1 OGK       0.112700
     46 H23         -4.0900     0.9900    -0.0100 hc         1 OGK       0.033200
     47 H23A        -3.6660     1.0170    -1.7150 hc         1 OGK       0.033200
     48 H26         -1.9250     5.3500    -0.5650 hc         1 OGK       0.038033
     49 H27         -3.0790     3.4210    -1.4810 hc         1 OGK       0.021700
@<TRIPOS>BOND
     1     1     2 1   
     2     1    24 1   
     3     1    25 1   
     4     1    48 1   
     5     2     3 1   
     6     2    26 1   
     7     2    49 1   
     8     3     4 1   
     9     3    23 1   
    10     3    27 1   
    11     4     5 1   
    12     4    28 1   
    13     4    29 1   
    14     5     6 1   
    15     5    17 1   
    16     5    30 1   
    17     6     7 2   
    18     6     8 1   
    19     8     9 1   
    20     8    31 1   
    21     9    10 1   
    22     9    13 1   
    23     9    14 1   
    24    10    11 1   
    25    10    12 1   
    26    13    14 1   
    27    13    32 1   
    28    13    33 1   
    29    14    15 1   
    30    14    34 1   
    31    15    16 1   
    32    15    35 1   
    33    15    36 1   
    34    16    37 1   
    35    16    38 1   
    36    16    39 1   
    37    17    18 1   
    38    17    22 1   
    39    17    40 1   
    40    18    19 1   
    41    18    41 1   
    42    18    42 1   
    43    19    20 1   
    44    19    43 1   
    45    19    44 1   
    46    20    21 2   
    47    20    22 1   
    48    22    23 1   
    49    22    45 1   
    50    23    46 1   
    51    23    47 1   
@<TRIPOS>SUBSTRUCTURE
     1 OGK         1 TEMP              0 ****  ****    0 ROOT
