@<TRIPOS>MOLECULE
OGN
   44    45     1     0     0
SMALL
No Charge or Current Charge


@<TRIPOS>ATOM
      1 CAA         -1.4440    -0.2660     0.1410 c2         1 OGN       0.554600
      2 CAB         -2.7530    -1.0920     0.1040 c6         1 OGN       0.058400
      3 CAC         -3.8520    -0.3470    -0.7050 c6         1 OGN       0.169300
      4 CAD         -3.9960     1.1160    -0.2000 c6         1 OGN       0.106300
      5 CAE         -2.6160     1.8130    -0.3640 c6         1 OGN       0.147300
      6 CAF         -2.6190     3.2990     0.1190 c3         1 OGN       0.168600
      7 CAH         -1.8470    -4.8200    -0.4830 c3         1 OGN      -0.177100
      8 NAI         -2.5710    -2.4860    -0.4010 ns         1 OGN      -0.489900
      9 OAJ         -5.1110    -1.0370    -0.6000 oh         1 OGN      -0.618000
     10 OAK         -4.4470     1.1260     1.1700 oh         1 OGN      -0.626000
     11 OAL         -1.5680     1.0960     0.3350 os         1 OGN      -0.420600
     12 OAM         -1.3570     3.9590    -0.0860 oh         1 OGN      -0.642000
     13 OAN         -1.5280    -3.3700     1.4190 o          1 OGN      -0.591100
     14 NAO          3.0060     0.6680     0.0500 ns         1 OGN      -0.148000
     15 CAP          2.0900    -0.3650    -0.0420 c          1 OGN       0.655100
     16 OAQ          0.8200     0.1580     0.0900 os         1 OGN      -0.302100
     17 OAR          2.3500    -1.5510    -0.2130 o          1 OGN      -0.484000
     18 CAS          4.4260     0.6970    -0.0160 ca         1 OGN      -0.001000
     19 CAT          5.2210    -0.4570    -0.2020 ca         1 OGN      -0.153000
     20 CAU          6.6220    -0.3530    -0.2570 ca         1 OGN      -0.082000
     21 CAV          7.2420     0.8990    -0.1270 ca         1 OGN      -0.140000
     22 CAW          6.4610     2.0510     0.0590 ca         1 OGN      -0.082000
     23 CAX          5.0610     1.9470     0.1140 ca         1 OGN      -0.153000
     24 NAY         -0.2610    -0.7840     0.0230 n2         1 OGN      -0.317700
     25 HAB         -3.0950    -1.1610     1.1460 h1         1 OGN       0.142700
     26 HAC         -3.5380    -0.3180    -1.7600 h1         1 OGN       0.034700
     27 HAD         -4.7260     1.6380    -0.8370 h1         1 OGN       0.040700
     28 HAE         -2.3630     1.8190    -1.4350 h1         1 OGN       0.065700
     29 HAF         -3.4120     3.8330    -0.4210 h1         1 OGN       0.030700
     30 HAFA        -2.8810     3.3170     1.1860 h1         1 OGN       0.030700
     31 HAH         -1.3330    -4.6390    -1.4340 hc         1 OGN       0.062367
     32 HAHA        -1.3560    -5.6080     0.0990 hc         1 OGN       0.062367
     33 HAHB        -2.8480    -5.1210    -0.8110 hc         1 OGN       0.062367
     34 HNAI        -2.9200    -2.7120    -1.3250 hn         1 OGN       0.312500
     35 HOAJ        -5.6560    -0.7700    -1.3730 ho         1 OGN       0.444000
     36 HOAK        -5.2140     0.5100     1.2090 ho         1 OGN       0.448000
     37 HOAM        -1.4350     4.8560     0.3090 ho         1 OGN       0.449000
     38 HNAO         2.5810     1.5740     0.1910 hn         1 OGN       0.168000
     39 HAT          4.7760    -1.4410    -0.3060 ha         1 OGN       0.128000
     40 HAU          7.2270    -1.2460    -0.4010 ha         1 OGN       0.112000
     41 HAV          8.3270     0.9780    -0.1700 ha         1 OGN       0.114000
     42 HAW          6.9400     3.0230     0.1600 ha         1 OGN       0.112000
     43 HAX          4.4660     2.8470     0.2580 ha         1 OGN       0.128000
     44 CAG         -1.9500    -3.5070     0.2800 c          1 OGN       0.621100
@<TRIPOS>BOND
     1     1     2 1   
     2     1    11 1   
     3     1    24 2   
     4     2     3 1   
     5     2     8 1   
     6     2    25 1   
     7     3     4 1   
     8     3     9 1   
     9     3    26 1   
    10     4     5 1   
    11     4    10 1   
    12     4    27 1   
    13     5     6 1   
    14     5    11 1   
    15     5    28 1   
    16     6    12 1   
    17     6    29 1   
    18     6    30 1   
    19     7    31 1   
    20     7    32 1   
    21     7    33 1   
    22     7    44 1   
    23     8    34 1   
    24     8    44 1   
    25     9    35 1   
    26    10    36 1   
    27    12    37 1   
    28    13    44 2   
    29    14    15 1   
    30    14    18 1   
    31    14    38 1   
    32    15    16 1   
    33    15    17 2   
    34    16    24 1   
    35    18    19 ar  
    36    18    23 ar  
    37    19    20 ar  
    38    19    39 1   
    39    20    21 ar  
    40    20    40 1   
    41    21    22 ar  
    42    21    41 1   
    43    22    23 ar  
    44    22    42 1   
    45    23    43 1   
@<TRIPOS>SUBSTRUCTURE
     1 OGN         1 TEMP              0 ****  ****    0 ROOT
