@<TRIPOS>MOLECULE
OGN
   44    45     1     0     0
SMALL
bcc


@<TRIPOS>ATOM
      1 CAA         -1.3810    -0.1460     0.0440 c2         1 OGN       0.554600
      2 CAB         -2.5830    -1.0720     0.0810 c6         1 OGN       0.058400
      3 CAC         -3.7800    -0.4460    -0.6330 c6         1 OGN       0.146100
      4 CAD         -3.9730     0.9810    -0.1280 c6         1 OGN       0.083100
      5 CAE         -2.7150     1.7700    -0.4630 c6         1 OGN       0.124100
      6 CAF         -2.7630     3.2020     0.0130 c3         1 OGN       0.145400
      7 CAH         -1.6040    -4.6780    -0.4310 c3         1 OGN      -0.177100
      8 NAI         -2.2710    -2.3660    -0.4470 ns         1 OGN      -0.556900
      9 OAJ         -4.8820    -1.2680    -0.3900 oh         1 OGN      -0.555800
     10 OAK         -4.2330     0.9350     1.2500 oh         1 OGN      -0.563800
     11 OAL         -1.5490     1.1670     0.1220 os         1 OGN      -0.397400
     12 OAM         -1.6430     3.8840    -0.4920 oh         1 OGN      -0.579800
     13 OAN         -2.1290    -3.4320     1.5410 o          1 OGN      -0.591100
     14 NAO          2.8990     0.7420     0.0860 ns         1 OGN      -0.474100
     15 CAP          2.0000    -0.2570    -0.0890 c          1 OGN       0.771100
     16 OAQ          0.7660     0.2670     0.0870 os         1 OGN      -0.203600
     17 OAR          2.2280    -1.4060    -0.3580 o          1 OGN      -0.533000
     18 CAS          4.2910     0.6730    -0.0130 ca         1 OGN       0.091600
     19 CAT          4.9940    -0.4250    -0.5100 ca         1 OGN      -0.171000
     20 CAU          6.3810    -0.3800    -0.5740 ca         1 OGN      -0.100000
     21 CAV          7.0870     0.7390    -0.1580 ca         1 OGN      -0.158000
     22 CAW          6.3840     1.8330     0.3300 ca         1 OGN      -0.100000
     23 CAX          5.0020     1.8010     0.4040 ca         1 OGN      -0.171000
     24 NAY         -0.2320    -0.6890     0.0420 n2         1 OGN      -0.416200
     25 HAB         -2.8480    -1.1990     1.1350 h1         1 OGN       0.142700
     26 HAC         -3.5580    -0.3810    -1.7090 h1         1 OGN       0.034700
     27 HAD         -4.8020     1.4390    -0.6850 h1         1 OGN       0.040700
     28 HAE         -2.5910     1.7670    -1.5530 h1         1 OGN       0.065700
     29 HAF         -3.7040     3.6350    -0.3510 h1         1 OGN       0.030700
     30 HAFA        -2.7960     3.2280     1.1090 h1         1 OGN       0.030700
     31 HAH         -0.5310    -4.8260    -0.2940 hc         1 OGN       0.062367
     32 HAHA        -2.1100    -5.5520    -0.0250 hc         1 OGN       0.062367
     33 HAHB        -1.8020    -4.6210    -1.5000 hc         1 OGN       0.062367
     34 HNAI        -2.1050    -2.4370    -1.4380 hn         1 OGN       0.312500
     35 HOAJ        -5.5950    -1.0110    -0.9840 ho         1 OGN       0.405000
     36 HOAK        -4.7000     1.7320     1.5150 ho         1 OGN       0.409000
     37 HOAM        -1.6690     4.7860    -0.1610 ho         1 OGN       0.410000
     38 HNAO         2.5270     1.6370     0.3670 hn         1 OGN       0.334500
     39 HAT          4.4810    -1.3090    -0.8500 ha         1 OGN       0.146000
     40 HAU          6.9100    -1.2400    -0.9610 ha         1 OGN       0.130000
     41 HAV          8.1680     0.7600    -0.2150 ha         1 OGN       0.132000
     42 HAW          6.9100     2.7180     0.6610 ha         1 OGN       0.130000
     43 HAX          4.4680     2.6610     0.7910 ha         1 OGN       0.146000
     44 CAG         -2.0270    -3.4450     0.3240 c          1 OGN       0.688100
@<TRIPOS>BOND
     1     1     2 1   
     2     1    11 1   
     3     1    24 2   
     4     2     3 1   
     5     2     8 1   
     6     2    25 1   
     7     3     4 1   
     8     3     9 1   
     9     3    26 1   
    10     4     5 1   
    11     4    10 1   
    12     4    27 1   
    13     5     6 1   
    14     5    11 1   
    15     5    28 1   
    16     6    12 1   
    17     6    29 1   
    18     6    30 1   
    19     7    31 1   
    20     7    32 1   
    21     7    33 1   
    22     7    44 1   
    23     8    34 1   
    24     8    44 1   
    25     9    35 1   
    26    10    36 1   
    27    12    37 1   
    28    13    44 2   
    29    14    15 1   
    30    14    18 1   
    31    14    38 1   
    32    15    16 1   
    33    15    17 2   
    34    16    24 1   
    35    18    19 ar  
    36    18    23 ar  
    37    19    20 ar  
    38    19    39 1   
    39    20    21 ar  
    40    20    40 1   
    41    21    22 ar  
    42    21    41 1   
    43    22    23 ar  
    44    22    42 1   
    45    23    43 1   
@<TRIPOS>SUBSTRUCTURE
     1 OGN         1 TEMP              0 ****  ****    0 ROOT
