@<TRIPOS>MOLECULE
OGO
   44    47     1     0     0
SMALL
No Charge or Current Charge


@<TRIPOS>ATOM
      1 N1           4.4450     1.3060    18.8720 ns         1 OGO      -0.374100
      2 C4          11.8220     0.7550    23.7470 ca         1 OGO      -0.110000
      3 C5          11.1980    -0.4280    23.3160 ca         1 OGO      -0.162000
      4 C6           9.9120    -0.7590    23.7880 ca         1 OGO       0.100100
      5 C7           9.1600    -2.1910    21.9560 cy         1 OGO       0.128300
      6 C8           8.2490    -1.1890    21.1600 cy         1 OGO       0.094000
      7 C10          6.5180    -2.2370    20.2080 c          1 OGO       0.618300
      8 C13          4.7370     0.3480    17.9470 c          1 OGO       0.556200
      9 C15          4.1840     2.2870    21.0630 ca         1 OGO      -0.168000
     10 C17          4.7730     1.0260    23.0390 ca         1 OGO      -0.145000
     11 O3           4.5010     0.5020    16.7600 o          1 OGO      -0.550000
     12 C12          5.3730    -0.8470    18.5100 cc         1 OGO      -0.256200
     13 C14          4.6240     1.2240    20.2580 ca         1 OGO       0.101600
     14 C19          5.1970     0.0560    20.8150 ca         1 OGO      -0.123800
     15 C18          5.2170    -0.0380    22.2340 ca         1 OGO      -0.048000
     16 C16          4.2720     2.1970    22.4580 ca         1 OGO      -0.054000
     17 C11          5.6610    -1.0190    19.8650 cd         1 OGO      -0.034400
     18 O2           6.6030    -3.1400    19.3780 o          1 OGO      -0.584100
     19 N            7.1280    -2.1230    21.4980 nj         1 OGO      -0.427800
     20 C9           8.0880    -3.2780    21.5930 cy         1 OGO       0.094000
     21 C1           9.2470     0.0920    24.7010 ca         1 OGO       0.117100
     22 O            7.9820    -0.2610    25.1410 os         1 OGO      -0.331100
     23 C            7.2220     0.5600    26.0440 c3         1 OGO       0.146900
     24 C3          11.1660     1.6070    24.6500 ca         1 OGO      -0.102000
     25 C2           9.8840     1.2810    25.1290 ca         1 OGO      -0.167000
     26 H1           4.0170     2.1490    18.5130 hn         1 OGO       0.329500
     27 H3          11.7170    -1.0850    22.6240 ha         1 OGO       0.117000
     28 H4          10.1420    -2.3650    21.5050 h1         1 OGO       0.070700
     29 H5           8.5170    -1.1060    20.0980 h1         1 OGO       0.073450
     30 H6           8.1540    -0.1990    21.6190 h1         1 OGO       0.073450
     31 H7           3.7570     3.1780    20.6090 ha         1 OGO       0.121000
     32 H8           4.8040     0.9320    24.1220 ha         1 OGO       0.123000
     33 H9           5.6590    -1.5720    17.7570 ha         1 OGO       0.218000
     34 H10          5.5350    -0.9340    22.7530 ha         1 OGO       0.129000
     35 H11          3.9260     3.0160    23.0840 ha         1 OGO       0.118000
     36 H12          7.8600    -3.9730    22.4080 h1         1 OGO       0.073450
     37 H13          8.3460    -3.8240    20.6780 h1         1 OGO       0.073450
     38 H14          6.2520     0.0940    26.2550 h1         1 OGO       0.042367
     39 H15          7.7530     0.6870    26.9960 h1         1 OGO       0.042367
     40 H16          7.0360     1.5500    25.6080 h1         1 OGO       0.042367
     41 H17         11.6520     2.5220    24.9820 ha         1 OGO       0.117000
     42 H18          9.4030     1.9610    25.8260 ha         1 OGO       0.120000
     43 O1           9.2970    -1.9160    23.3600 os         1 OGO      -0.319100
     44 H2          12.8150     1.0100    23.3830 ha         1 OGO       0.117000
@<TRIPOS>BOND
     1     1     8 1   
     2     1    13 1   
     3     1    26 1   
     4     2     3 ar  
     5     2    24 ar  
     6     2    44 1   
     7     3     4 ar  
     8     3    27 1   
     9     4    21 ar  
    10     4    43 1   
    11     5     6 1   
    12     5    20 1   
    13     5    28 1   
    14     5    43 1   
    15     6    19 1   
    16     6    29 1   
    17     6    30 1   
    18     7    17 1   
    19     7    18 2   
    20     7    19 1   
    21     8    11 2   
    22     8    12 1   
    23     9    13 ar  
    24     9    16 ar  
    25     9    31 1   
    26    10    15 ar  
    27    10    16 ar  
    28    10    32 1   
    29    12    17 2   
    30    12    33 1   
    31    13    14 ar  
    32    14    15 ar  
    33    14    17 1   
    34    15    34 1   
    35    16    35 1   
    36    19    20 1   
    37    20    36 1   
    38    20    37 1   
    39    21    22 1   
    40    21    25 ar  
    41    22    23 1   
    42    23    38 1   
    43    23    39 1   
    44    23    40 1   
    45    24    25 ar  
    46    24    41 1   
    47    25    42 1   
@<TRIPOS>SUBSTRUCTURE
     1 OGO         1 TEMP              0 ****  ****    0 ROOT
