@<TRIPOS>MOLECULE
OGO
   44    47     1     0     0
SMALL
abcg2


@<TRIPOS>ATOM
      1 N1           4.7490     1.1720    18.0570 ns         1 OGO      -0.374100
      2 C4          11.2800     1.3140    23.5400 ca         1 OGO      -0.110000
      3 C5          10.4530     0.2900    23.0730 ca         1 OGO      -0.162000
      4 C6           9.6660    -0.4320    23.9590 ca         1 OGO       0.100100
      5 C7           8.8070    -1.8430    22.2420 cy         1 OGO       0.128300
      6 C8           8.0070    -0.9110    21.2920 cy         1 OGO       0.094000
      7 C10          5.9490    -2.1780    20.3830 c          1 OGO       0.618300
      8 C13          5.3440     0.1260    17.3910 c          1 OGO       0.556200
      9 C15          3.8920     2.3470    19.9820 ca         1 OGO      -0.168000
     10 C17          4.0330     1.3030    22.1590 ca         1 OGO      -0.145000
     11 O3           5.5160     0.1690    16.1680 o          1 OGO      -0.550000
     12 C12          5.7380    -0.9880    18.2330 cc         1 OGO      -0.256200
     13 C14          4.5100     1.2280    19.4110 ca         1 OGO       0.101600
     14 C19          4.8980     0.1380    20.2200 ca         1 OGO      -0.123800
     15 C18          4.6430     0.1990    21.6020 ca         1 OGO      -0.048000
     16 C16          3.6590     2.3790    21.3420 ca         1 OGO      -0.054000
     17 C11          5.5300    -0.9800    19.5710 cd         1 OGO      -0.034400
     18 O2           5.3050    -3.2300    20.3580 o          1 OGO      -0.584100
     19 N            7.0470    -2.0100    21.1160 nj         1 OGO      -0.427800
     20 C9           7.7420    -2.9350    22.0150 cy         1 OGO       0.094000
     21 C1           9.6940    -0.1240    25.3360 ca         1 OGO       0.117100
     22 O            8.8860    -0.8770    26.1290 os         1 OGO      -0.331100
     23 C            8.8960    -0.6190    27.5320 c3         1 OGO       0.146900
     24 C3          11.3130     1.6150    24.8900 ca         1 OGO      -0.102000
     25 C2          10.5210     0.8960    25.7890 ca         1 OGO      -0.167000
     26 H1           4.4690     1.9590    17.4840 hn         1 OGO       0.329500
     27 H3          10.4340     0.0660    22.0170 ha         1 OGO       0.117000
     28 H4           9.8080    -2.0970    21.8970 h1         1 OGO       0.070700
     29 H5           8.5160    -0.6210    20.3740 h1         1 OGO       0.073450
     30 H6           7.5870    -0.0350    21.7870 h1         1 OGO       0.073450
     31 H7           3.6030     3.1750    19.3470 ha         1 OGO       0.121000
     32 H8           3.8430     1.3390    23.2230 ha         1 OGO       0.123000
     33 H9           6.2140    -1.8230    17.7400 ha         1 OGO       0.218000
     34 H10          4.9320    -0.6330    22.2310 ha         1 OGO       0.129000
     35 H11          3.1830     3.2470    21.7800 ha         1 OGO       0.118000
     36 H12          7.1690    -3.1850    22.9090 h1         1 OGO       0.073450
     37 H13          8.0930    -3.8430    21.5260 h1         1 OGO       0.073450
     38 H14          8.1970    -1.3270    27.9690 h1         1 OGO       0.042367
     39 H15          9.8910    -0.7760    27.9530 h1         1 OGO       0.042367
     40 H16          8.5670     0.4010    27.7460 h1         1 OGO       0.042367
     41 H17         11.9510     2.4060    25.2620 ha         1 OGO       0.117000
     42 H18         10.5540     1.1390    26.8400 ha         1 OGO       0.120000
     43 O1           8.8290    -1.4510    23.5990 os         1 OGO      -0.319100
     44 H2          11.8890     1.8670    22.8370 ha         1 OGO       0.117000
@<TRIPOS>BOND
     1     1     8 1   
     2     1    13 1   
     3     1    26 1   
     4     2     3 ar  
     5     2    24 ar  
     6     2    44 1   
     7     3     4 ar  
     8     3    27 1   
     9     4    21 ar  
    10     4    43 1   
    11     5     6 1   
    12     5    20 1   
    13     5    28 1   
    14     5    43 1   
    15     6    19 1   
    16     6    29 1   
    17     6    30 1   
    18     7    17 1   
    19     7    18 2   
    20     7    19 1   
    21     8    11 2   
    22     8    12 1   
    23     9    13 ar  
    24     9    16 ar  
    25     9    31 1   
    26    10    15 ar  
    27    10    16 ar  
    28    10    32 1   
    29    12    17 2   
    30    12    33 1   
    31    13    14 ar  
    32    14    15 ar  
    33    14    17 1   
    34    15    34 1   
    35    16    35 1   
    36    19    20 1   
    37    20    36 1   
    38    20    37 1   
    39    21    22 1   
    40    21    25 ar  
    41    22    23 1   
    42    23    38 1   
    43    23    39 1   
    44    23    40 1   
    45    24    25 ar  
    46    24    41 1   
    47    25    42 1   
@<TRIPOS>SUBSTRUCTURE
     1 OGO         1 TEMP              0 ****  ****    0 ROOT
