@<TRIPOS>MOLECULE
OGQ
   71    75     1     0     0
SMALL
bcc


@<TRIPOS>ATOM
      1 CAA         19.0810    -3.2990    16.8250 cc         1 OGQ      -0.285600
      2 CAB         18.0300    -4.2320    16.6700 cc         1 OGQ       0.044800
      3 CAC         20.4350    -3.6000    16.6090 cd         1 OGQ       0.341000
      4 CAD         18.7190    -2.0080    17.2580 cc         1 OGQ       0.397700
      5 CAE         16.7350    -3.9030    16.9280 cd         1 OGQ      -0.330600
      6 CAF         20.8200    -4.8910    15.9900 ca         1 OGQ      -0.124000
      7 CAG         21.3790    -2.5710    16.7490 ca         1 OGQ      -0.273800
      8 CAH         17.4180    -1.6470    17.5240 cd         1 OGQ      -0.375600
      9 CAJ         16.3840    -2.5910    17.3700 cd         1 OGQ       0.436900
     10 CAK         20.8440    -4.9540    14.6010 ca         1 OGQ      -0.111000
     11 CAL         21.1270    -6.0130    16.7530 ca         1 OGQ      -0.093600
     12 CAM         22.7640    -2.7320    16.5220 ca         1 OGQ       0.033000
     13 CAN         20.9550    -1.2980    17.1810 ca         1 OGQ       0.463000
     14 CAP         21.1680    -6.1430    13.9560 ca         1 OGQ      -0.168600
     15 CAQ         21.4350    -7.2020    16.1010 ca         1 OGQ      -0.108000
     16 CAR         23.6450    -1.7120    16.7040 ca         1 OGQ      -0.244000
     17 CAS         21.8220    -0.2470    17.3710 ca         1 OGQ      -0.354300
     18 CAT         21.4450    -7.2740    14.7200 ca         1 OGQ      -0.076000
     19 CAU         21.1970    -6.2730    12.4650 c          1 OGQ       0.684700
     20 CAV         23.2000    -0.4250    17.1380 ca         1 OGQ       0.290600
     21 CAY         23.6040     1.8780    17.7580 c3         1 OGQ       0.206100
     22 CAZ         25.4880     0.3830    17.0740 c3         1 OGQ       0.206100
     23 CBA         14.0480    -3.2500    17.4560 c3         1 OGQ       0.028600
     24 CBB         14.7660    -0.9380    18.0790 c3         1 OGQ       0.028600
     25 CBC         20.6770    -3.2470     8.9540 ca         1 OGQ      -0.111500
     26 CBD         19.1910    -4.8950     9.8400 ca         1 OGQ      -0.111500
     27 CBE         19.6040    -2.6070     8.3450 ca         1 OGQ      -0.133000
     28 CBF         18.1230    -4.2550     9.2330 ca         1 OGQ      -0.133000
     29 CBG         21.6550    -5.1070    10.3450 c3         1 OGQ       0.147300
     30 CBH         17.1500    -2.4350     7.7890 c3         1 OGQ      -0.046800
     31 CBJ         20.4870    -4.4010     9.7040 ca         1 OGQ      -0.115300
     32 CBK         18.3100    -3.1010     8.4700 ca         1 OGQ      -0.071300
     33 CBL         21.1220    -5.9090    18.2690 c          1 OGQ       0.915200
     34 NAO         15.1050    -2.2720    17.6280 nh         1 OGQ      -0.274600
     35 NAX         24.0720     0.5800    17.3170 nh         1 OGQ      -0.656500
     36 NBI         21.5640    -5.1720    11.7880 ns         1 OGQ      -0.572900
     37 OAI         19.6550    -1.0590    17.4270 os         1 OGQ      -0.368800
     38 OAW         20.9210    -7.3360    11.9270 o          1 OGQ      -0.603100
     39 OBM         20.8520    -4.7710    18.7070 o          1 OGQ      -0.770300
     40 OBN         21.3820    -6.9330    18.9160 o          1 OGQ      -0.770300
     41 H1          18.2620    -5.2350    16.3400 ha         1 OGQ       0.161500
     42 H2          15.9750    -4.6580    16.7960 ha         1 OGQ       0.147500
     43 H3          17.2210    -0.6350    17.8460 ha         1 OGQ       0.156500
     44 H4          20.5800    -4.0690    14.0330 ha         1 OGQ       0.123000
     45 H5          23.1340    -3.6950    16.1960 ha         1 OGQ       0.161500
     46 H6          21.6700    -8.0790    16.6890 ha         1 OGQ       0.170000
     47 H7          24.6930    -1.8930    16.5170 ha         1 OGQ       0.147500
     48 H8          21.4200     0.7000    17.7010 ha         1 OGQ       0.156500
     49 H9          21.6830    -8.2090    14.2310 ha         1 OGQ       0.151000
     50 H10         24.4480     2.5550    17.8440 h1         1 OGQ       0.049283
     51 H11         22.8970     2.3130    17.0480 h1         1 OGQ       0.049283
     52 H12         23.1190     1.8210    18.7340 h1         1 OGQ       0.049283
     53 H13         26.0160     1.3080    17.2790 h1         1 OGQ       0.049283
     54 H14         25.9070    -0.3890    17.7220 h1         1 OGQ       0.049283
     55 H15         25.6870     0.1080    16.0370 h1         1 OGQ       0.049283
     56 H16         13.0960    -2.7890    17.6990 h1         1 OGQ       0.049283
     57 H17         13.9910    -3.6070    16.4260 h1         1 OGQ       0.049283
     58 H18         14.1800    -4.1100    18.1140 h1         1 OGQ       0.049283
     59 H19         15.0110    -0.1820    17.3280 h1         1 OGQ       0.049283
     60 H20         13.7000    -0.8840    18.2720 h1         1 OGQ       0.049283
     61 H21         15.2860    -0.6830    19.0040 h1         1 OGQ       0.049283
     62 H22         21.6750    -2.8390     8.8410 ha         1 OGQ       0.135500
     63 H23         19.0120    -5.7930    10.4190 ha         1 OGQ       0.135500
     64 H24         19.7800    -1.7080     7.7670 ha         1 OGQ       0.128500
     65 H25         17.1240    -4.6600     9.3520 ha         1 OGQ       0.128500
     66 H26         21.7380    -6.1250     9.9640 h1         1 OGQ       0.062700
     67 H27         22.5830    -4.5960    10.0860 h1         1 OGQ       0.062700
     68 H28         16.8770    -2.9650     6.8740 hc         1 OGQ       0.041700
     69 H29         16.2660    -2.4210     8.4260 hc         1 OGQ       0.041700
     70 H30         17.3840    -1.4080     7.5120 hc         1 OGQ       0.041700
     71 H31         21.8430    -4.3490    12.2970 hn         1 OGQ       0.313500
@<TRIPOS>BOND
     1     1     2 1   
     2     1     3 2   
     3     1     4 1   
     4     2     5 2   
     5     2    41 1   
     6     3     6 1   
     7     3     7 1   
     8     4     8 2   
     9     4    37 1   
    10     5     9 1   
    11     5    42 1   
    12     6    10 ar  
    13     6    11 ar  
    14     7    12 ar  
    15     7    13 ar  
    16     8     9 1   
    17     8    43 1   
    18     9    34 2   
    19    10    14 ar  
    20    10    44 1   
    21    11    15 ar  
    22    11    33 1   
    23    12    16 ar  
    24    12    45 1   
    25    13    17 ar  
    26    13    37 1   
    27    14    18 ar  
    28    14    19 1   
    29    15    18 ar  
    30    15    46 1   
    31    16    20 ar  
    32    16    47 1   
    33    17    20 ar  
    34    17    48 1   
    35    18    49 1   
    36    19    36 1   
    37    19    38 2   
    38    20    35 1   
    39    21    35 1   
    40    21    50 1   
    41    21    51 1   
    42    21    52 1   
    43    22    35 1   
    44    22    53 1   
    45    22    54 1   
    46    22    55 1   
    47    23    34 1   
    48    23    56 1   
    49    23    57 1   
    50    23    58 1   
    51    24    34 1   
    52    24    59 1   
    53    24    60 1   
    54    24    61 1   
    55    25    27 ar  
    56    25    31 ar  
    57    25    62 1   
    58    26    28 ar  
    59    26    31 ar  
    60    26    63 1   
    61    27    32 ar  
    62    27    64 1   
    63    28    32 ar  
    64    28    65 1   
    65    29    31 1   
    66    29    36 1   
    67    29    66 1   
    68    29    67 1   
    69    30    32 1   
    70    30    68 1   
    71    30    69 1   
    72    30    70 1   
    73    33    39 1   
    74    33    40 1   
    75    36    71 1   
@<TRIPOS>SUBSTRUCTURE
     1 OGQ         1 TEMP              0 ****  ****    0 ROOT
