@<TRIPOS>MOLECULE
OGQ
   71    75     1     0     0
SMALL
No Charge or Current Charge


@<TRIPOS>ATOM
      1 CAA         18.7080    -3.5410    17.0820 cc         1 OGQ      -0.220300
      2 CAB         17.7770    -4.6090    17.3260 cc         1 OGQ      -0.005200
      3 CAC         19.8830    -3.7360    16.3900 cd         1 OGQ       0.341000
      4 CAD         18.3830    -2.2260    17.5270 cc         1 OGQ       0.288000
      5 CAE         16.6090    -4.3570    18.0160 cd         1 OGQ      -0.380600
      6 CAF         20.3530    -5.0780    15.9730 ca         1 OGQ      -0.124000
      7 CAG         20.7540    -2.5760    16.1780 ca         1 OGQ      -0.208500
      8 CAH         17.2280    -1.9500    18.2100 cd         1 OGQ      -0.425600
      9 CAJ         16.3160    -3.0240    18.4770 cd         1 OGQ       0.436900
     10 CAK         20.5410    -5.3270    14.5960 ca         1 OGQ      -0.093000
     11 CAL         20.5890    -6.1200    16.9110 ca         1 OGQ      -0.093600
     12 CAM         22.0170    -2.6810    15.5540 ca         1 OGQ       0.051000
     13 CAN         20.3340    -1.3170    16.6500 ca         1 OGQ       0.288000
     14 CAP         20.9430    -6.5980    14.1230 ca         1 OGQ      -0.168600
     15 CAQ         20.9780    -7.3900    16.4360 ca         1 OGQ      -0.090000
     16 CAR         22.8160    -1.5440    15.3750 ca         1 OGQ      -0.226000
     17 CAS         21.1430    -0.1900    16.4590 ca         1 OGQ      -0.271000
     18 CAT         21.1510    -7.6270    15.0650 ca         1 OGQ      -0.058000
     19 CAU         21.1500    -6.8860    12.6490 c          1 OGQ       0.617700
     20 CAV         22.3840    -0.2870    15.8190 ca         1 OGQ       0.429000
     21 CAY         22.5910     2.2070    15.4580 c3         1 OGQ       0.206100
     22 CAZ         24.6690     0.7730    15.6050 c3         1 OGQ       0.206100
     23 CBA         14.3550    -3.8480    19.8380 c3         1 OGQ       0.057900
     24 CBB         14.5630    -1.4090    19.3130 c3         1 OGQ       0.057900
     25 CBC         21.9580    -3.6380     9.5820 ca         1 OGQ      -0.093500
     26 CBD         19.6170    -4.1870     9.2270 ca         1 OGQ      -0.093500
     27 CBE         21.7490    -2.3750     9.0010 ca         1 OGQ      -0.115000
     28 CBF         19.4090    -2.9250     8.6460 ca         1 OGQ      -0.115000
     29 CBG         21.1180    -5.9120    10.3370 c3         1 OGQ       0.147300
     30 CBH         20.2490    -0.6450     7.9000 c3         1 OGQ      -0.046800
     31 CBJ         20.8930    -4.5510     9.6970 ca         1 OGQ      -0.115300
     32 CBK         20.4740    -2.0110     8.5310 ca         1 OGQ      -0.071300
     33 CBL         20.4930    -5.9000    18.4090 c          1 OGQ       0.704600
     34 NAO         15.1220    -2.7700    19.1810 nh         1 OGQ      -0.333200
     35 NAX         23.1900     0.8620    15.6370 nh         1 OGQ      -0.794900
     36 NBI         20.9560    -5.8340    11.7850 ns         1 OGQ      -0.505900
     37 OAI         19.1430    -1.0990    17.3180 os         1 OGQ      -0.280000
     38 OAW         21.4740    -7.9910    12.2360 o          1 OGQ      -0.603100
     39 OBM         21.0140    -4.9020    18.8840 o          1 OGQ      -0.665000
     40 OBN         19.9580    -6.7710    19.0800 o          1 OGQ      -0.665000
     41 H1          17.9790    -5.6140    16.9590 ha         1 OGQ       0.211500
     42 H2          15.9130    -5.1700    18.1890 ha         1 OGQ       0.197500
     43 H3          17.0290    -0.9400    18.5410 ha         1 OGQ       0.206500
     44 H4          20.3450    -4.5150    13.8990 ha         1 OGQ       0.105000
     45 H5          22.4030    -3.6380    15.2090 ha         1 OGQ       0.143500
     46 H6          21.1660    -8.1970    17.1420 ha         1 OGQ       0.152000
     47 H7          23.7750    -1.6490    14.8770 ha         1 OGQ       0.129500
     48 H8          20.7980     0.7660    16.8360 ha         1 OGQ       0.138500
     49 H9          21.4600    -8.6180    14.7370 ha         1 OGQ       0.133000
     50 H10         23.2590     2.8590    14.8790 h1         1 OGQ       0.049283
     51 H11         21.6410     2.1390    14.9110 h1         1 OGQ       0.049283
     52 H12         22.4040     2.6790    16.4320 h1         1 OGQ       0.049283
     53 H13         25.1250     1.7230    15.9160 h1         1 OGQ       0.049283
     54 H14         25.0260    -0.0050    16.2940 h1         1 OGQ       0.049283
     55 H15         25.0200     0.5350    14.5920 h1         1 OGQ       0.049283
     56 H16         13.6870    -3.4440    20.6090 h1         1 OGQ       0.049283
     57 H17         13.7470    -4.3860    19.0990 h1         1 OGQ       0.049283
     58 H18         15.0340    -4.5610    20.3240 h1         1 OGQ       0.049283
     59 H19         14.6510    -0.8650    18.3640 h1         1 OGQ       0.049283
     60 H20         13.5000    -1.4440    19.5820 h1         1 OGQ       0.049283
     61 H21         15.1000    -0.8530    20.0920 h1         1 OGQ       0.049283
     62 H22         22.9490    -3.9050     9.9450 ha         1 OGQ       0.117500
     63 H23         18.7840    -4.8820     9.3140 ha         1 OGQ       0.117500
     64 H24         22.5810    -1.6790     8.9160 ha         1 OGQ       0.110500
     65 H25         18.4190    -2.6570     8.2850 ha         1 OGQ       0.110500
     66 H26         20.4000    -6.6400     9.9340 h1         1 OGQ       0.062700
     67 H27         22.1300    -6.2700    10.1060 h1         1 OGQ       0.062700
     68 H28         20.4260    -0.6820     6.8180 hc         1 OGQ       0.041700
     69 H29         19.2220    -0.2950     8.0590 hc         1 OGQ       0.041700
     70 H30         20.9230     0.1080     8.3250 hc         1 OGQ       0.041700
     71 H31         20.6900    -4.9470    12.1880 hn         1 OGQ       0.313500
@<TRIPOS>BOND
     1     1     2 1   
     2     1     3 2   
     3     1     4 1   
     4     2     5 2   
     5     2    41 1   
     6     3     6 1   
     7     3     7 1   
     8     4     8 2   
     9     4    37 1   
    10     5     9 1   
    11     5    42 1   
    12     6    10 ar  
    13     6    11 ar  
    14     7    12 ar  
    15     7    13 ar  
    16     8     9 1   
    17     8    43 1   
    18     9    34 2   
    19    10    14 ar  
    20    10    44 1   
    21    11    15 ar  
    22    11    33 1   
    23    12    16 ar  
    24    12    45 1   
    25    13    17 ar  
    26    13    37 1   
    27    14    18 ar  
    28    14    19 1   
    29    15    18 ar  
    30    15    46 1   
    31    16    20 ar  
    32    16    47 1   
    33    17    20 ar  
    34    17    48 1   
    35    18    49 1   
    36    19    36 1   
    37    19    38 2   
    38    20    35 1   
    39    21    35 1   
    40    21    50 1   
    41    21    51 1   
    42    21    52 1   
    43    22    35 1   
    44    22    53 1   
    45    22    54 1   
    46    22    55 1   
    47    23    34 1   
    48    23    56 1   
    49    23    57 1   
    50    23    58 1   
    51    24    34 1   
    52    24    59 1   
    53    24    60 1   
    54    24    61 1   
    55    25    27 ar  
    56    25    31 ar  
    57    25    62 1   
    58    26    28 ar  
    59    26    31 ar  
    60    26    63 1   
    61    27    32 ar  
    62    27    64 1   
    63    28    32 ar  
    64    28    65 1   
    65    29    31 1   
    66    29    36 1   
    67    29    66 1   
    68    29    67 1   
    69    30    32 1   
    70    30    68 1   
    71    30    69 1   
    72    30    70 1   
    73    33    39 1   
    74    33    40 1   
    75    36    71 1   
@<TRIPOS>SUBSTRUCTURE
     1 OGQ         1 TEMP              0 ****  ****    0 ROOT
