@<TRIPOS>MOLECULE
OGS
   61    62     1     0     0
SMALL
No Charge or Current Charge


@<TRIPOS>ATOM
      1 C01          8.7590    13.3240     2.2520 c6         1 OGS       0.122300
      2 C02          7.5400    14.2730     2.4400 c6         1 OGS       0.094300
      3 C03          7.4040    15.2220     1.2150 c6         1 OGS       0.150300
      4 C04          8.7460    16.0070     0.9980 c6         1 OGS       0.393300
      5 C06         10.0390    14.1890     2.0070 c6         1 OGS       0.174300
      6 C08         10.0670    17.8180     2.0350 ca         1 OGS       0.147100
      7 C09         10.3090    18.5960     3.1780 ca         1 OGS      -0.153500
      8 C10         11.3610    19.5290     3.1990 ca         1 OGS      -0.084500
      9 C11         12.1830    19.6930     2.0690 ca         1 OGS      -0.119300
     10 C12         11.9410    18.9190     0.9190 ca         1 OGS      -0.084500
     11 C13         10.8890    17.9850     0.8970 ca         1 OGS      -0.153500
     12 C14         13.3200    20.7060     2.0870 c3         1 OGS      -0.021100
     13 C15         12.8650    22.0950     1.5910 c3         1 OGS      -0.075400
     14 C16         13.9990    23.1440     1.5980 c3         1 OGS      -0.075400
     15 C17         13.5400    24.5330     1.1010 c3         1 OGS      -0.076400
     16 C18         14.6740    25.5820     1.1080 c3         1 OGS      -0.074400
     17 C19         14.2120    26.9720     0.6130 c3         1 OGS      -0.074400
     18 C20         15.3390    28.0290     0.5330 c3         1 OGS      -0.073400
     19 C21         15.9490    28.4160     1.8960 c3         1 OGS      -0.088100
     20 C22         11.3240    13.3410     1.7460 c3         1 OGS       0.223600
     21 O05          9.8440    15.0700     0.8680 os         1 OGS      -0.436000
     22 O07          9.0150    16.9240     2.0850 os         1 OGS      -0.380100
     23 O23         11.0770    12.3490     0.7310 os         1 OGS      -0.600700
     24 O24          8.8900    12.4640     3.4080 oh         1 OGS      -0.716000
     25 O25          6.2550    16.0780     1.4070 oh         1 OGS      -0.713000
     26 O26          6.3320    13.5130     2.6310 oh         1 OGS      -0.678000
     27 O28         11.8210    10.5120    -0.7070 o          1 OGS      -0.709200
     28 O29         12.5480    10.6210     1.6520 o          1 OGS      -0.709200
     29 O30         13.4260    12.2470     0.0160 o          1 OGS      -0.709200
     30 S27         12.3290    11.3450     0.3920 s6         1 OGS       1.499300
     31 H1           8.5800    12.7200     1.3490 h1         1 OGS       0.088700
     32 H2           7.7310    14.8900     3.3330 h1         1 OGS       0.059700
     33 H3           7.2480    14.5980     0.3220 h1         1 OGS       0.067700
     34 H4           8.6480    16.5810     0.0650 h2         1 OGS       0.086700
     35 H5          10.2320    14.8090     2.8950 h1         1 OGS       0.043700
     36 H6           9.6770    18.4750     4.0540 ha         1 OGS       0.133500
     37 H7          11.5340    20.1250     4.0920 ha         1 OGS       0.106000
     38 H8          12.5670    19.0410     0.0380 ha         1 OGS       0.106000
     39 H9          10.7310    17.4060    -0.0070 ha         1 OGS       0.133500
     40 H10         13.7240    20.8010     3.1020 hc         1 OGS       0.040200
     41 H11         14.1490    20.3540     1.4600 hc         1 OGS       0.040200
     42 H12         12.4680    21.9990     0.5720 hc         1 OGS       0.042700
     43 H13         12.0410    22.4490     2.2230 hc         1 OGS       0.042700
     44 H14         14.8220    22.7890     0.9660 hc         1 OGS       0.035200
     45 H15         14.3950    23.2390     2.6170 hc         1 OGS       0.035200
     46 H16         12.7170    24.8880     1.7340 hc         1 OGS       0.037700
     47 H17         13.1440    24.4370     0.0830 hc         1 OGS       0.037700
     48 H18         15.4960    25.2280     0.4740 hc         1 OGS       0.036200
     49 H19         15.0680    25.6680     2.1280 hc         1 OGS       0.036200
     50 H20         13.4130    27.3450     1.2670 hc         1 OGS       0.036700
     51 H21         13.7710    26.8620    -0.3860 hc         1 OGS       0.036700
     52 H22         16.1340    27.6650    -0.1290 hc         1 OGS       0.035200
     53 H23         14.9330    28.9350     0.0640 hc         1 OGS       0.035200
     54 H24         16.6770    29.2260     1.7690 hc         1 OGS       0.029700
     55 H25         15.1700    28.7620     2.5860 hc         1 OGS       0.029700
     56 H26         16.4680    27.5660     2.3530 hc         1 OGS       0.029700
     57 H27         11.6170    12.8680     2.6930 h1         1 OGS       0.047700
     58 H28         12.1320    14.0240     1.4500 h1         1 OGS       0.047700
     59 H29          9.4570    11.7030     3.1380 ho         1 OGS       0.503000
     60 H30          5.6120    15.5080     1.8940 ho         1 OGS       0.512000
     61 H31          6.5920    12.7680     3.2220 ho         1 OGS       0.444000
@<TRIPOS>BOND
     1     1     2 1   
     2     1     5 1   
     3     1    24 1   
     4     1    31 1   
     5     2     3 1   
     6     2    26 1   
     7     2    32 1   
     8     3     4 1   
     9     3    25 1   
    10     3    33 1   
    11     4    21 1   
    12     4    22 1   
    13     4    34 1   
    14     5    20 1   
    15     5    21 1   
    16     5    35 1   
    17     6     7 ar  
    18     6    11 ar  
    19     6    22 1   
    20     7     8 ar  
    21     7    36 1   
    22     8     9 ar  
    23     8    37 1   
    24     9    10 ar  
    25     9    12 1   
    26    10    11 ar  
    27    10    38 1   
    28    11    39 1   
    29    12    13 1   
    30    12    40 1   
    31    12    41 1   
    32    13    14 1   
    33    13    42 1   
    34    13    43 1   
    35    14    15 1   
    36    14    44 1   
    37    14    45 1   
    38    15    16 1   
    39    15    46 1   
    40    15    47 1   
    41    16    17 1   
    42    16    48 1   
    43    16    49 1   
    44    17    18 1   
    45    17    50 1   
    46    17    51 1   
    47    18    19 1   
    48    18    52 1   
    49    18    53 1   
    50    19    54 1   
    51    19    55 1   
    52    19    56 1   
    53    20    23 1   
    54    20    57 1   
    55    20    58 1   
    56    23    30 1   
    57    24    59 1   
    58    25    60 1   
    59    26    61 1   
    60    27    30 1   
    61    28    30 1   
    62    29    30 1   
@<TRIPOS>SUBSTRUCTURE
     1 OGS         1 TEMP              0 ****  ****    0 ROOT
