@<TRIPOS>MOLECULE
OGS
   61    62     1     0     0
SMALL
bcc


@<TRIPOS>ATOM
      1 C01          8.7320    13.3040     2.0150 c6         1 OGS       0.099100
      2 C02          7.7750    14.4460     2.3510 c6         1 OGS       0.071100
      3 C03          7.9550    15.5670     1.3370 c6         1 OGS       0.127100
      4 C04          9.4140    16.0090     1.3020 c6         1 OGS       0.346900
      5 C06         10.1670    13.8260     1.9310 c6         1 OGS       0.151100
      6 C08         10.5980    17.6400     2.5870 ca         1 OGS       0.147100
      7 C09         10.3650    18.6290     3.5370 ca         1 OGS      -0.171500
      8 C10         11.2450    19.6920     3.6660 ca         1 OGS      -0.102500
      9 C11         12.3720    19.8030     2.8540 ca         1 OGS      -0.119300
     10 C12         12.5890    18.8010     1.9130 ca         1 OGS      -0.102500
     11 C13         11.7250    17.7220     1.7750 ca         1 OGS      -0.171500
     12 C14         13.2960    20.9840     2.9580 c3         1 OGS      -0.021100
     13 C15         12.9250    22.1050     1.9850 c3         1 OGS      -0.075400
     14 C16         13.8780    23.2910     2.0600 c3         1 OGS      -0.075400
     15 C17         13.5330    24.3960     1.0690 c3         1 OGS      -0.076400
     16 C18         14.5100    25.5650     1.1050 c3         1 OGS      -0.074400
     17 C19         14.1780    26.6460     0.0820 c3         1 OGS      -0.074400
     18 C20         15.1900    27.7870     0.0180 c3         1 OGS      -0.073400
     19 C21         15.2480    28.6380     1.2800 c3         1 OGS      -0.088100
     20 C22         11.1620    12.7900     1.4480 c3         1 OGS       0.200400
     21 O05         10.2510    14.9300     1.0400 os         1 OGS      -0.389600
     22 O07          9.6960    16.6240     2.5330 os         1 OGS      -0.356900
     23 O23         10.7490    12.3200     0.1760 os         1 OGS      -0.577500
     24 O24          8.7130    12.3000     3.0020 oh         1 OGS      -0.593800
     25 O25          7.1620    16.6890     1.6100 oh         1 OGS      -0.590800
     26 O26          6.4290    14.0260     2.2840 oh         1 OGS      -0.615800
     27 O28         10.9700    11.0620    -1.8490 o          1 OGS      -0.709200
     28 O29         11.9870    10.1660     0.2060 o          1 OGS      -0.709200
     29 O30         12.9760    12.1250    -0.8940 o          1 OGS      -0.709200
     30 S27         11.7680    11.3300    -0.6560 s6         1 OGS       1.499300
     31 H1           8.4430    12.9000     1.0350 h1         1 OGS       0.088700
     32 H2           8.0120    14.8230     3.3550 h1         1 OGS       0.059700
     33 H3           7.7320    15.1600     0.3380 h1         1 OGS       0.067700
     34 H4           9.5760    16.7180     0.4820 h2         1 OGS       0.086700
     35 H5          10.4900    14.1240     2.9390 h1         1 OGS       0.043700
     36 H6           9.4880    18.5650     4.1700 ha         1 OGS       0.151500
     37 H7          11.0460    20.4530     4.4120 ha         1 OGS       0.124000
     38 H8          13.4640    18.8530     1.2750 ha         1 OGS       0.124000
     39 H9          11.9500    16.9510     1.0500 ha         1 OGS       0.151500
     40 H10         13.2830    21.3750     3.9790 hc         1 OGS       0.040200
     41 H11         14.3230    20.6660     2.7600 hc         1 OGS       0.040200
     42 H12         12.9200    21.7070     0.9650 hc         1 OGS       0.042700
     43 H13         11.9030    22.4390     2.1880 hc         1 OGS       0.042700
     44 H14         14.9000    22.9440     1.8740 hc         1 OGS       0.035200
     45 H15         13.8760    23.6980     3.0770 hc         1 OGS       0.035200
     46 H16         12.5200    24.7620     1.2680 hc         1 OGS       0.037700
     47 H17         13.5110    23.9780     0.0570 hc         1 OGS       0.037700
     48 H18         15.5240    25.1940     0.9190 hc         1 OGS       0.036200
     49 H19         14.5230    25.9900     2.1140 hc         1 OGS       0.036200
     50 H20         13.1840    27.0560     0.2950 hc         1 OGS       0.036700
     51 H21         14.1060    26.1820    -0.9070 hc         1 OGS       0.036700
     52 H22         16.1830    27.3770    -0.1940 hc         1 OGS       0.035200
     53 H23         14.9440    28.4300    -0.8310 hc         1 OGS       0.035200
     54 H24         15.9390    29.4730     1.1600 hc         1 OGS       0.029700
     55 H25         14.2670    29.0540     1.5170 hc         1 OGS       0.029700
     56 H26         15.5810    28.0650     2.1470 hc         1 OGS       0.029700
     57 H27         11.2100    11.9760     2.1760 h1         1 OGS       0.047700
     58 H28         12.1550    13.2510     1.3980 h1         1 OGS       0.047700
     59 H29          7.9340    11.7520     2.8720 ho         1 OGS       0.404000
     60 H30          6.2440    16.4010     1.6250 ho         1 OGS       0.413000
     61 H31          6.1580    13.6980     3.1460 ho         1 OGS       0.405000
@<TRIPOS>BOND
     1     1     2 1   
     2     1     5 1   
     3     1    24 1   
     4     1    31 1   
     5     2     3 1   
     6     2    26 1   
     7     2    32 1   
     8     3     4 1   
     9     3    25 1   
    10     3    33 1   
    11     4    21 1   
    12     4    22 1   
    13     4    34 1   
    14     5    20 1   
    15     5    21 1   
    16     5    35 1   
    17     6     7 ar  
    18     6    11 ar  
    19     6    22 1   
    20     7     8 ar  
    21     7    36 1   
    22     8     9 ar  
    23     8    37 1   
    24     9    10 ar  
    25     9    12 1   
    26    10    11 ar  
    27    10    38 1   
    28    11    39 1   
    29    12    13 1   
    30    12    40 1   
    31    12    41 1   
    32    13    14 1   
    33    13    42 1   
    34    13    43 1   
    35    14    15 1   
    36    14    44 1   
    37    14    45 1   
    38    15    16 1   
    39    15    46 1   
    40    15    47 1   
    41    16    17 1   
    42    16    48 1   
    43    16    49 1   
    44    17    18 1   
    45    17    50 1   
    46    17    51 1   
    47    18    19 1   
    48    18    52 1   
    49    18    53 1   
    50    19    54 1   
    51    19    55 1   
    52    19    56 1   
    53    20    23 1   
    54    20    57 1   
    55    20    58 1   
    56    23    30 1   
    57    24    59 1   
    58    25    60 1   
    59    26    61 1   
    60    27    30 1   
    61    28    30 1   
    62    29    30 1   
@<TRIPOS>SUBSTRUCTURE
     1 OGS         1 TEMP              0 ****  ****    0 ROOT
