@<TRIPOS>MOLECULE
OGU
   15    14     1     0     0
SMALL
No Charge or Current Charge


@<TRIPOS>ATOM
      1 C1          -8.1510     2.4140   -13.6340 c3         1 OGU       0.034300
      2 C           -7.9950     1.0960   -14.4810 c          1 OGU       0.725000
      3 C2          -6.7750     3.0160   -13.2270 c3         1 OGU       0.135300
      4 C4          -5.9510     2.0830   -12.3140 c3         1 OGU      -0.104100
      5 O1          -8.9190     3.4440   -14.3110 oh         1 OGU      -0.643000
      6 O           -8.6580     0.1190   -14.1550 o          1 OGU      -0.721500
      7 O2          -6.9910     4.2570   -12.5310 oh         1 OGU      -0.695000
      8 OXT         -7.2330     1.0910   -15.4420 o          1 OGU      -0.721500
      9 H1          -8.6730     2.1350   -12.7080 h1         1 OGU       0.020700
     10 H2          -6.1910     3.2020   -14.1390 h1         1 OGU       0.040700
     11 H3          -4.9970     2.5510   -12.0420 hc         1 OGU       0.032367
     12 H4          -6.4980     1.8530   -11.3920 hc         1 OGU       0.032367
     13 H5          -5.7250     1.1390   -12.8240 hc         1 OGU       0.032367
     14 H6          -8.6390     4.2790   -13.8700 ho         1 OGU       0.410000
     15 H7          -6.1090     4.5830   -12.2470 ho         1 OGU       0.417000
@<TRIPOS>BOND
     1     1     2 1   
     2     1     3 1   
     3     1     5 1   
     4     1     9 1   
     5     2     6 1   
     6     2     8 1   
     7     3     4 1   
     8     3     7 1   
     9     3    10 1   
    10     4    11 1   
    11     4    12 1   
    12     4    13 1   
    13     5    14 1   
    14     7    15 1   
@<TRIPOS>SUBSTRUCTURE
     1 OGU         1 TEMP              0 ****  ****    0 ROOT
