@<TRIPOS>MOLECULE
OGU
   15    14     1     0     0
SMALL
abcg2


@<TRIPOS>ATOM
      1 C1          -8.1120     2.4670   -13.6410 c3         1 OGU       0.034300
      2 C           -7.9650     1.1740   -14.4770 c          1 OGU       0.725000
      3 C2          -6.7420     2.9710   -13.1800 c3         1 OGU       0.135300
      4 C4          -6.0110     1.9930   -12.2760 c3         1 OGU      -0.104100
      5 O1          -8.7600     3.4570   -14.4080 oh         1 OGU      -0.643000
      6 O           -8.0710     0.1050   -13.8430 o          1 OGU      -0.721500
      7 O2          -6.9870     4.1980   -12.5040 oh         1 OGU      -0.695000
      8 OXT         -7.7280     1.3120   -15.6900 o          1 OGU      -0.721500
      9 H1          -8.6970     2.2290   -12.7390 h1         1 OGU       0.020700
     10 H2          -6.1340     3.1550   -14.0770 h1         1 OGU       0.040700
     11 H3          -5.0830     2.4370   -11.9110 hc         1 OGU       0.032367
     12 H4          -6.6200     1.7230   -11.4120 hc         1 OGU       0.032367
     13 H5          -5.7500     1.0770   -12.8030 hc         1 OGU       0.032367
     14 H6          -8.6860     4.2820   -13.9150 ho         1 OGU       0.410000
     15 H7          -6.1580     4.6830   -12.4410 ho         1 OGU       0.417000
@<TRIPOS>BOND
     1     1     2 1   
     2     1     3 1   
     3     1     5 1   
     4     1     9 1   
     5     2     6 1   
     6     2     8 1   
     7     3     4 1   
     8     3     7 1   
     9     3    10 1   
    10     4    11 1   
    11     4    12 1   
    12     4    13 1   
    13     5    14 1   
    14     7    15 1   
@<TRIPOS>SUBSTRUCTURE
     1 OGU         1 TEMP              0 ****  ****    0 ROOT
