@<TRIPOS>MOLECULE
OGV
   31    33     1     0     0
SMALL
No Charge or Current Charge


@<TRIPOS>ATOM
      1 N1           7.5010    -0.3970    18.5110 nc         1 OGV      -0.359700
      2 N3           6.2090     0.7590    19.8310 na         1 OGV       0.009200
      3 C4          10.5370    -0.7350    22.9520 ca         1 OGV      -0.069300
      4 C5           9.0620    -1.1280    22.9720 c3         1 OGV      -0.102100
      5 C6           8.2400    -0.2070    22.0630 c          1 OGV       0.599100
      6 C7           7.2440    -0.1480    19.7910 cd         1 OGV       0.375400
      7 C8           5.8150     0.9870    18.5490 cd         1 OGV      -0.089000
      8 C10          3.9140     2.1940    19.2890 cc         1 OGV      -0.084000
      9 C13         11.4460    -1.4080    22.1100 ca         1 OGV      -0.086000
     10 O            7.9140     0.9190    22.4090 o          1 OGV      -0.553100
     11 C3          11.0020     0.3100    23.7740 ca         1 OGV      -0.089000
     12 C2          12.3590     0.6800    23.7560 ca         1 OGV      -0.099000
     13 C1          13.2590     0.0050    22.9140 ca         1 OGV      -0.093000
     14 C           12.8010    -1.0380    22.0930 ca         1 OGV       0.126000
     15 Cl          13.9270    -1.8830    21.0380 cl         1 OGV      -0.208000
     16 N            7.9530    -0.7260    20.8210 ns         1 OGV      -0.423400
     17 N2           6.6200     0.3480    17.7220 nc         1 OGV      -0.092000
     18 C12          5.3250     0.9290    20.9100 cd         1 OGV      -0.069000
     19 C11          4.2250     1.7320    20.6200 cc         1 OGV      -0.152000
     20 C9           4.6810     1.7880    18.2180 cd         1 OGV      -0.082000
     21 H1           8.6780    -1.0400    23.9950 hc         1 OGV       0.070700
     22 H2           8.9600    -2.1680    22.6390 hc         1 OGV       0.070700
     23 H3           3.0270     2.8010    19.1350 ha         1 OGV       0.127000
     24 H4          11.1070    -2.2180    21.4690 ha         1 OGV       0.130000
     25 H5          10.3110     0.8400    24.4270 ha         1 OGV       0.115000
     26 H6          12.7110     1.4880    24.3930 ha         1 OGV       0.121000
     27 H7          14.3090     0.2880    22.8980 ha         1 OGV       0.132000
     28 H8           8.4380    -1.5870    20.6130 hn         1 OGV       0.343500
     29 H9           5.5550     0.5010    21.8760 h4         1 OGV       0.151000
     30 H10          3.5380     1.9980    21.4180 ha         1 OGV       0.134000
     31 H11          4.4130     2.0240    17.1930 ha         1 OGV       0.148000
@<TRIPOS>BOND
     1     1     6 2   
     2     1    17 1   
     3     2     6 1   
     4     2     7 1   
     5     2    18 1   
     6     3     4 1   
     7     3     9 ar  
     8     3    11 ar  
     9     4     5 1   
    10     4    21 1   
    11     4    22 1   
    12     5    10 2   
    13     5    16 1   
    14     6    16 1   
    15     7    17 2   
    16     7    20 1   
    17     8    19 1   
    18     8    20 2   
    19     8    23 1   
    20     9    14 ar  
    21     9    24 1   
    22    11    12 ar  
    23    11    25 1   
    24    12    13 ar  
    25    12    26 1   
    26    13    14 ar  
    27    13    27 1   
    28    14    15 1   
    29    16    28 1   
    30    18    19 2   
    31    18    29 1   
    32    19    30 1   
    33    20    31 1   
@<TRIPOS>SUBSTRUCTURE
     1 OGV         1 TEMP              0 ****  ****    0 ROOT
