@<TRIPOS>MOLECULE
OGV
   31    33     1     0     0
SMALL
abcg2


@<TRIPOS>ATOM
      1 N1           6.6430    -1.1310    18.4670 nc         1 OGV      -0.359700
      2 N3           5.9710     0.4190    19.8690 na         1 OGV       0.009200
      3 C4          10.6160    -0.7620    22.7540 ca         1 OGV      -0.069300
      4 C5           9.2920    -1.3640    22.3780 c3         1 OGV      -0.102100
      5 C6           8.5680    -0.5710    21.3020 c          1 OGV       0.599100
      6 C7           6.7640    -0.6870    19.6940 cd         1 OGV       0.375400
      7 C8           5.3640     0.6150    18.6340 cd         1 OGV      -0.089000
      8 C10          4.2430     2.5100    19.5540 cc         1 OGV      -0.084000
      9 C13         11.7580    -1.0890    22.0250 ca         1 OGV      -0.086000
     10 O            8.8350     0.5820    21.0060 o          1 OGV      -0.553100
     11 C3          10.7180     0.1450    23.8070 ca         1 OGV      -0.089000
     12 C2          11.9420     0.7210    24.1280 ca         1 OGV      -0.099000
     13 C1          13.0840     0.4010    23.4020 ca         1 OGV      -0.093000
     14 C           12.9720    -0.5050    22.3570 ca         1 OGV       0.126000
     15 CL          14.4000    -0.9230    21.4300 cl         1 OGV      -0.208000
     16 N            7.5370    -1.2480    20.7010 ns         1 OGV      -0.423400
     17 N2           5.7630    -0.3300    17.7910 nc         1 OGV      -0.092000
     18 C12          5.7300     1.2210    20.9580 cd         1 OGV      -0.069000
     19 C11          4.8720     2.2600    20.8090 cc         1 OGV      -0.152000
     20 C9           4.4790     1.7050    18.4780 cd         1 OGV      -0.082000
     21 H1           8.6260    -1.3970    23.2450 hc         1 OGV       0.070700
     22 H2           9.4130    -2.3940    22.0360 hc         1 OGV       0.070700
     23 H3           3.5680     3.3500    19.4620 ha         1 OGV       0.127000
     24 H4          11.7010    -1.7930    21.2050 ha         1 OGV       0.130000
     25 H5           9.8340     0.4020    24.3780 ha         1 OGV       0.115000
     26 H6          12.0130     1.4240    24.9480 ha         1 OGV       0.121000
     27 H7          14.0410     0.8420    23.6450 ha         1 OGV       0.132000
     28 H8           7.4130    -2.2320    20.8920 hn         1 OGV       0.343500
     29 H9           6.2420     0.9700    21.8720 h4         1 OGV       0.151000
     30 H10          4.6700     2.9000    21.6560 ha         1 OGV       0.134000
     31 H11          4.0130     1.8680    17.5160 ha         1 OGV       0.148000
@<TRIPOS>BOND
     1     1     6 2   
     2     1    17 1   
     3     2     6 1   
     4     2     7 1   
     5     2    18 1   
     6     3     4 1   
     7     3     9 ar  
     8     3    11 ar  
     9     4     5 1   
    10     4    21 1   
    11     4    22 1   
    12     5    10 2   
    13     5    16 1   
    14     6    16 1   
    15     7    17 2   
    16     7    20 1   
    17     8    19 1   
    18     8    20 2   
    19     8    23 1   
    20     9    14 ar  
    21     9    24 1   
    22    11    12 ar  
    23    11    25 1   
    24    12    13 ar  
    25    12    26 1   
    26    13    14 ar  
    27    13    27 1   
    28    14    15 1   
    29    16    28 1   
    30    18    19 2   
    31    18    29 1   
    32    19    30 1   
    33    20    31 1   
@<TRIPOS>SUBSTRUCTURE
     1 OGV         1 TEMP              0 ****  ****    0 ROOT
