@<TRIPOS>MOLECULE
OGY
   32    33     1     0     0
SMALL
abcg2


@<TRIPOS>ATOM
      1 C10          3.0770     0.3840    -0.2430 ca         1 OGY      -0.078300
      2 C13          5.1990    -1.2650     0.5500 ca         1 OGY      -0.111000
      3 C15          3.6280    -0.5430    -1.1240 ca         1 OGY      -0.106500
      4 O01         -5.6290    -1.4850     0.4040 oh         1 OGY      -0.667000
      5 C03         -3.5920    -0.4090    -0.0730 cc         1 OGY       0.234300
      6 C04         -3.8670     0.6720     0.7140 cd         1 OGY      -0.195000
      7 N05         -2.7850     1.4990     0.5670 na         1 OGY      -0.302500
      8 C06         -1.9160     0.9100    -0.2790 cd         1 OGY       0.401800
      9 C07         -0.6070     1.5050    -0.6660 c3         1 OGY      -0.098700
     10 C08          0.5780     0.6590    -0.2000 c3         1 OGY      -0.072400
     11 C09          1.9150     1.2430    -0.6560 c3         1 OGY      -0.031100
     12 C11          3.6050     0.4700     1.0440 ca         1 OGY      -0.106500
     13 C12          4.6560    -0.3470     1.4400 ca         1 OGY      -0.109000
     14 C14          4.6810    -1.3610    -0.7350 ca         1 OGY      -0.109000
     15 N16         -2.3800    -0.2490    -0.6850 nc         1 OGY      -0.679000
     16 H1           6.0220    -1.8990     0.8550 ha         1 OGY       0.111000
     17 H2           3.2320    -0.6210    -2.1310 ha         1 OGY       0.110000
     18 H3          -6.1070    -2.3170     0.3540 ho         1 OGY       0.445000
     19 H4          -3.8560    -2.5120     0.0420 h1         1 OGY       0.033700
     20 H5          -4.5810    -1.7680    -1.3730 h1         1 OGY       0.033700
     21 H6          -4.7000     0.9250     1.3450 h4         1 OGY       0.168000
     22 H7          -2.6620     2.3930     1.0150 hn         1 OGY       0.349000
     23 H8          -0.5690     1.6080    -1.7540 hc         1 OGY       0.051200
     24 H9          -0.5250     2.5150    -0.2580 hc         1 OGY       0.051200
     25 H10          0.5630     0.5780     0.8910 hc         1 OGY       0.056200
     26 H11          0.4700    -0.3570    -0.5880 hc         1 OGY       0.056200
     27 H12          2.0310     2.2490    -0.2450 hc         1 OGY       0.044700
     28 H13          1.9060     1.3490    -1.7440 hc         1 OGY       0.044700
     29 H14          3.1900     1.1870     1.7440 ha         1 OGY       0.110000
     30 H15          5.0530    -0.2640     2.4440 ha         1 OGY       0.111500
     31 H16          5.1000    -2.0700    -1.4370 ha         1 OGY       0.111500
     32 C02         -4.4170    -1.6300    -0.2950 c3         1 OGY       0.144300
@<TRIPOS>BOND
     1     1     3 ar  
     2     1    11 1   
     3     1    12 ar  
     4     2    13 ar  
     5     2    14 ar  
     6     2    16 1   
     7     3    14 ar  
     8     3    17 1   
     9     4    18 1   
    10     4    32 1   
    11     5     6 2   
    12     5    15 1   
    13     5    32 1   
    14     6     7 1   
    15     6    21 1   
    16     7     8 1   
    17     7    22 1   
    18     8     9 1   
    19     8    15 2   
    20     9    10 1   
    21     9    23 1   
    22     9    24 1   
    23    10    11 1   
    24    10    25 1   
    25    10    26 1   
    26    11    27 1   
    27    11    28 1   
    28    12    13 ar  
    29    12    29 1   
    30    13    30 1   
    31    14    31 1   
    32    19    32 1   
    33    20    32 1   
@<TRIPOS>SUBSTRUCTURE
     1 OGY         1 TEMP              0 ****  ****    0 ROOT
