@<TRIPOS>MOLECULE
OGY
   32    33     1     0     0
SMALL
No Charge or Current Charge


@<TRIPOS>ATOM
      1 C10          3.1360     0.4220    -0.2940 ca         1 OGY      -0.078300
      2 C13          5.4060    -0.9900     0.6020 ca         1 OGY      -0.111000
      3 C15          3.6350    -0.6660    -1.0370 ca         1 OGY      -0.106500
      4 O01         -6.0970    -0.7990    -0.5740 oh         1 OGY      -0.667000
      5 C03         -3.7300    -0.4610     0.0050 cc         1 OGY       0.234300
      6 C04         -3.6280     0.2110     1.1960 cd         1 OGY      -0.195000
      7 N05         -2.4710     0.9680     1.0860 na         1 OGY      -0.302500
      8 C06         -1.9380     0.7130    -0.1600 cd         1 OGY       0.401800
      9 C07         -0.6680     1.3190    -0.7000 c3         1 OGY      -0.098700
     10 C08          0.5990     0.5680    -0.2300 c3         1 OGY      -0.072400
     11 C09          1.9070     1.1810    -0.7750 c3         1 OGY      -0.031100
     12 C11          3.7800     0.7970     0.9010 ca         1 OGY      -0.106500
     13 C12          4.9120     0.0930     1.3470 ca         1 OGY      -0.109000
     14 C14          4.7670    -1.3700    -0.5900 ca         1 OGY      -0.109000
     15 N16         -2.6840    -0.1510    -0.8270 nc         1 OGY      -0.679000
     16 H1           6.2820    -1.5350     0.9470 ha         1 OGY       0.111000
     17 H2           3.1440    -0.9680    -1.9590 ha         1 OGY       0.110000
     18 H3          -6.7320    -1.4950    -0.8560 ho         1 OGY       0.445000
     19 H4          -4.8860    -2.2220     0.3610 h1         1 OGY       0.033700
     20 H5          -4.5190    -1.9320    -1.3430 h1         1 OGY       0.033700
     21 H6          -4.2720     0.2030     2.0690 h4         1 OGY       0.168000
     22 H7          -2.0770     1.5940     1.7780 hn         1 OGY       0.349000
     23 H8          -0.6980     1.3250    -1.7960 hc         1 OGY       0.051200
     24 H9          -0.6030     2.3680    -0.3880 hc         1 OGY       0.051200
     25 H10          0.6330     0.5670     0.8660 hc         1 OGY       0.056200
     26 H11          0.5340    -0.4800    -0.5470 hc         1 OGY       0.056200
     27 H12          1.9690     2.2320    -0.4670 hc         1 OGY       0.044700
     28 H13          1.8730     1.1860    -1.8720 hc         1 OGY       0.044700
     29 H14          3.4030     1.6340     1.4850 ha         1 OGY       0.110000
     30 H15          5.4060     0.3880     2.2710 ha         1 OGY       0.111500
     31 H16          5.1470    -2.2100    -1.1680 ha         1 OGY       0.111500
     32 C02         -4.8170    -1.4400    -0.4070 c3         1 OGY       0.144300
@<TRIPOS>BOND
     1     1     3 ar  
     2     1    11 1   
     3     1    12 ar  
     4     2    13 ar  
     5     2    14 ar  
     6     2    16 1   
     7     3    14 ar  
     8     3    17 1   
     9     4    18 1   
    10     4    32 1   
    11     5     6 2   
    12     5    15 1   
    13     5    32 1   
    14     6     7 1   
    15     6    21 1   
    16     7     8 1   
    17     7    22 1   
    18     8     9 1   
    19     8    15 2   
    20     9    10 1   
    21     9    23 1   
    22     9    24 1   
    23    10    11 1   
    24    10    25 1   
    25    10    26 1   
    26    11    27 1   
    27    11    28 1   
    28    12    13 ar  
    29    12    29 1   
    30    13    30 1   
    31    14    31 1   
    32    19    32 1   
    33    20    32 1   
@<TRIPOS>SUBSTRUCTURE
     1 OGY         1 TEMP              0 ****  ****    0 ROOT
