@<TRIPOS>MOLECULE
OGZ
   20    20     1     0     0
SMALL
No Charge or Current Charge


@<TRIPOS>ATOM
      1 C14         14.8770   -10.0170    20.1260 c3         1 OGZ       0.197100
      2 C15         13.8220   -10.4590    21.1320 ca         1 OGZ      -0.093300
      3 C17         12.3950   -12.1990    22.0660 ca         1 OGZ      -0.122000
      4 C16         13.3780   -11.7950    21.1490 ca         1 OGZ      -0.055000
      5 F1          12.5920    -7.9740    24.3280 f          1 OGZ      -0.115333
      6 C18         11.8510   -11.2760    22.9740 ca         1 OGZ      -0.059000
      7 C19         12.2920    -9.9340    22.9770 ca         1 OGZ      -0.199300
      8 C20         11.6950    -8.9170    23.9580 c3         1 OGZ       0.356300
      9 C21         13.2750    -9.5350    22.0440 ca         1 OGZ      -0.062000
     10 F           11.2540    -9.4960    25.0980 f          1 OGZ      -0.115333
     11 F2          10.6420    -8.2690    23.4120 f          1 OGZ      -0.115333
     12 N2          16.2340   -10.3790    20.5740 n8         1 OGZ      -1.001200
     13 H1          14.8270    -8.9280    19.9870 h1         1 OGZ       0.037700
     14 H2          14.6840   -10.4930    19.1540 h1         1 OGZ       0.037700
     15 H3          12.0520   -13.2320    22.0720 ha         1 OGZ       0.121000
     16 H4          13.7950   -12.5170    20.4490 ha         1 OGZ       0.135000
     17 H5          11.0850   -11.6080    23.6720 ha         1 OGZ       0.128000
     18 H6          13.6160    -8.5010    22.0220 ha         1 OGZ       0.125000
     19 H7          16.9180    -9.9850    19.9160 hn         1 OGZ       0.400000
     20 H8          16.4310    -9.8870    21.4530 hn         1 OGZ       0.400000
@<TRIPOS>BOND
     1     1     2 1   
     2     1    12 1   
     3     1    13 1   
     4     1    14 1   
     5     2     4 ar  
     6     2     9 ar  
     7     3     4 ar  
     8     3     6 ar  
     9     3    15 1   
    10     4    16 1   
    11     5     8 1   
    12     6     7 ar  
    13     6    17 1   
    14     7     8 1   
    15     7     9 ar  
    16     8    10 1   
    17     8    11 1   
    18     9    18 1   
    19    12    19 1   
    20    12    20 1   
@<TRIPOS>SUBSTRUCTURE
     1 OGZ         1 TEMP              0 ****  ****    0 ROOT
