@<TRIPOS>MOLECULE
OGZ
   20    20     1     0     0
SMALL
bcc


@<TRIPOS>ATOM
      1 C14         14.9350    -9.8460    20.2790 c3         1 OGZ       0.197100
      2 C15         13.8800   -10.3400    21.2360 ca         1 OGZ      -0.093300
      3 C17         12.5430   -12.1340    22.1440 ca         1 OGZ      -0.140000
      4 C16         13.5300   -11.6880    21.2800 ca         1 OGZ      -0.073000
      5 F1          12.2510    -7.8290    24.0920 f          1 OGZ      -0.236633
      6 C18         11.8930   -11.2460    22.9890 ca         1 OGZ      -0.077000
      7 C19         12.2460    -9.9020    22.9630 ca         1 OGZ      -0.199300
      8 C20         11.5370    -8.9360    23.8610 c3         1 OGZ       0.720200
      9 C21         13.2290    -9.4540    22.0870 ca         1 OGZ      -0.080000
     10 F           11.2540    -9.4720    25.0550 f          1 OGZ      -0.236633
     11 F2          10.3650    -8.5370    23.3390 f          1 OGZ      -0.236633
     12 N2          16.0900   -10.7250    20.2610 n8         1 OGZ      -0.890800
     13 H1          15.1690    -8.8010    20.5210 h1         1 OGZ       0.037700
     14 H2          14.5110    -9.8320    19.2710 h1         1 OGZ       0.037700
     15 H3          12.2770   -13.1820    22.1660 ha         1 OGZ       0.139000
     16 H4          14.0430   -12.3910    20.6360 ha         1 OGZ       0.153000
     17 H5          11.1280   -11.6120    23.6610 ha         1 OGZ       0.146000
     18 H6          13.5090    -8.4090    22.0630 ha         1 OGZ       0.143000
     19 H7          16.7230   -10.4340    19.5280 hn         1 OGZ       0.344800
     20 H8          16.6030   -10.6310    21.1290 hn         1 OGZ       0.344800
@<TRIPOS>BOND
     1     1     2 1   
     2     1    12 1   
     3     1    13 1   
     4     1    14 1   
     5     2     4 ar  
     6     2     9 ar  
     7     3     4 ar  
     8     3     6 ar  
     9     3    15 1   
    10     4    16 1   
    11     5     8 1   
    12     6     7 ar  
    13     6    17 1   
    14     7     8 1   
    15     7     9 ar  
    16     8    10 1   
    17     8    11 1   
    18     9    18 1   
    19    12    19 1   
    20    12    20 1   
@<TRIPOS>SUBSTRUCTURE
     1 OGZ         1 TEMP              0 ****  ****    0 ROOT
