@<TRIPOS>MOLECULE
OH0
   33    32     1     0     0
SMALL
bcc


@<TRIPOS>ATOM
      1 C4          -8.8030     3.5320   -80.1370 c3         1 OH0      -0.065400
      2 C2          -6.7790     2.1280   -80.8910 c3         1 OH0      -0.069400
      3 O2         -12.7550     6.8840   -78.8990 o          1 OH0      -0.839300
      4 C5         -10.1150     2.7390   -80.0540 c3         1 OH0      -0.144400
      5 C6         -10.4730     2.3210   -78.6490 c          1 OH0       0.640100
      6 N          -10.9690     3.2560   -77.8270 n          1 OH0      -0.321300
      7 C           -7.8270    -0.1990   -80.7830 c3         1 OH0      -0.096100
      8 O          -11.3290     2.8270   -76.5670 oh         1 OH0      -0.421100
      9 C1          -7.5140     1.0200   -81.6390 c3         1 OH0      -0.070400
     10 C3          -7.5320     2.7750   -79.7280 c3         1 OH0      -0.076400
     11 C7         -11.5020     4.5640   -78.1440 c3         1 OH0       0.131000
     12 C8         -12.9940     4.5550   -78.4390 c3         1 OH0      -0.240400
     13 C9         -13.5680     5.9450   -78.7920 c          1 OH0       0.934600
     14 O1         -14.8030     5.9980   -78.9470 o          1 OH0      -0.839300
     15 O3         -10.3000     1.1740   -78.2240 o          1 OH0      -0.675100
     16 H1          -8.6950     3.8890   -81.1650 hc         1 OH0       0.046200
     17 H2          -8.8970     4.4330   -79.5260 hc         1 OH0       0.046200
     18 H3          -5.8330     1.7250   -80.5130 hc         1 OH0       0.027700
     19 H4          -6.5090     2.9140   -81.6030 hc         1 OH0       0.027700
     20 H6         -10.9210     3.3320   -80.4920 hc         1 OH0       0.068700
     21 H7         -10.0520     1.8260   -80.6450 hc         1 OH0       0.068700
     22 H8          -8.2790    -0.9940   -81.3790 hc         1 OH0       0.036033
     23 H9          -6.9180    -0.6010   -80.3310 hc         1 OH0       0.036033
     24 H10         -8.5200     0.0340   -79.9740 hc         1 OH0       0.036033
     25 H11        -11.1610     1.8680   -76.6030 ho         1 OH0       0.420000
     26 H12         -6.8960     0.7100   -82.4860 hc         1 OH0       0.030200
     27 H13         -8.4350     1.4120   -82.0810 hc         1 OH0       0.030200
     28 H14         -7.7520     2.0310   -78.9590 hc         1 OH0       0.044700
     29 H15         -6.8480     3.4840   -79.2550 hc         1 OH0       0.044700
     30 H16        -10.9450     4.9500   -78.9940 h1         1 OH0       0.064200
     31 H17        -11.2680     5.2240   -77.3080 h1         1 OH0       0.064200
     32 H18        -13.5450     4.1480   -77.5870 hc         1 OH0       0.030700
     33 H19        -13.1930     3.8730   -79.2740 hc         1 OH0       0.030700
@<TRIPOS>BOND
     1     1     4 1   
     2     1    10 1   
     3     1    16 1   
     4     1    17 1   
     5     2     9 1   
     6     2    10 1   
     7     2    18 1   
     8     2    19 1   
     9     3    13 1   
    10     4     5 1   
    11     4    20 1   
    12     4    21 1   
    13     5     6 1   
    14     5    15 2   
    15     6     8 1   
    16     6    11 1   
    17     7     9 1   
    18     7    22 1   
    19     7    23 1   
    20     7    24 1   
    21     8    25 1   
    22     9    26 1   
    23     9    27 1   
    24    10    28 1   
    25    10    29 1   
    26    11    12 1   
    27    11    30 1   
    28    11    31 1   
    29    12    13 1   
    30    12    32 1   
    31    12    33 1   
    32    13    14 1   
@<TRIPOS>SUBSTRUCTURE
     1 OH0         1 TEMP              0 ****  ****    0 ROOT
