@<TRIPOS>MOLECULE
OH0
   33    32     1     0     0
SMALL
No Charge or Current Charge


@<TRIPOS>ATOM
      1 C4          -8.7420     3.5200   -79.9800 c3         1 OH0      -0.065400
      2 C2          -6.7190     2.1840   -80.9990 c3         1 OH0      -0.069400
      3 O2         -13.2300     6.2720   -80.1290 o          1 OH0      -0.734000
      4 C5         -10.0460     2.6800   -79.8830 c3         1 OH0      -0.144400
      5 C6         -10.3890     2.2860   -78.4300 c          1 OH0       0.573100
      6 N          -11.2020     3.1520   -77.6350 n          1 OH0      -0.254300
      7 C           -7.7010    -0.2210   -80.9720 c3         1 OH0      -0.096100
      8 O          -11.5280     2.7840   -76.2740 oh         1 OH0      -0.460100
      9 C1          -7.4730     1.0770   -81.7750 c3         1 OH0      -0.070400
     10 C3          -7.4150     2.7520   -79.7330 c3         1 OH0      -0.076400
     11 C7         -11.6720     4.4960   -78.0460 c3         1 OH0       0.131000
     12 C8         -13.1140     4.4840   -78.5910 c3         1 OH0      -0.240400
     13 C9         -13.4930     5.9080   -78.9940 c          1 OH0       0.724000
     14 O1         -13.9850     6.6340   -78.1440 o          1 OH0      -0.734000
     15 O3          -9.9800     1.2250   -77.9680 o          1 OH0      -0.675100
     16 H1          -8.6970     4.0010   -80.9660 hc         1 OH0       0.046200
     17 H2          -8.8040     4.3400   -79.2530 hc         1 OH0       0.046200
     18 H3          -5.7380     1.7910   -80.7060 hc         1 OH0       0.027700
     19 H4          -6.5180     3.0140   -81.6880 hc         1 OH0       0.027700
     20 H6         -10.8470     3.3010   -80.2960 hc         1 OH0       0.068700
     21 H7          -9.9510     1.7740   -80.4870 hc         1 OH0       0.068700
     22 H8          -8.1880    -0.9750   -81.6010 hc         1 OH0       0.036033
     23 H9          -6.7460    -0.6320   -80.6230 hc         1 OH0       0.036033
     24 H10         -8.3390    -0.0430   -80.1000 hc         1 OH0       0.036033
     25 H11        -12.3430     2.2360   -76.3480 ho         1 OH0       0.459000
     26 H12         -6.8880     0.8270   -82.6690 hc         1 OH0       0.030200
     27 H13         -8.4310     1.4630   -82.1420 hc         1 OH0       0.030200
     28 H14         -7.5620     1.9570   -78.9940 hc         1 OH0       0.044700
     29 H15         -6.7100     3.4530   -79.2690 hc         1 OH0       0.044700
     30 H16        -10.9950     4.9260   -78.7940 h1         1 OH0       0.064200
     31 H17        -11.6300     5.1590   -77.1710 h1         1 OH0       0.064200
     32 H18        -13.7480     4.1300   -77.7690 hc         1 OH0       0.030700
     33 H19        -13.1070     3.8210   -79.4640 hc         1 OH0       0.030700
@<TRIPOS>BOND
     1     1     4 1   
     2     1    10 1   
     3     1    16 1   
     4     1    17 1   
     5     2     9 1   
     6     2    10 1   
     7     2    18 1   
     8     2    19 1   
     9     3    13 1   
    10     4     5 1   
    11     4    20 1   
    12     4    21 1   
    13     5     6 1   
    14     5    15 2   
    15     6     8 1   
    16     6    11 1   
    17     7     9 1   
    18     7    22 1   
    19     7    23 1   
    20     7    24 1   
    21     8    25 1   
    22     9    26 1   
    23     9    27 1   
    24    10    28 1   
    25    10    29 1   
    26    11    12 1   
    27    11    30 1   
    28    11    31 1   
    29    12    13 1   
    30    12    32 1   
    31    12    33 1   
    32    13    14 1   
@<TRIPOS>SUBSTRUCTURE
     1 OH0         1 TEMP              0 ****  ****    0 ROOT
