@<TRIPOS>MOLECULE
OH1
   39    40     1     0     0
SMALL
No Charge or Current Charge


@<TRIPOS>ATOM
      1 C10         -1.0500     1.0230    -0.4390 c3         1 OH1       0.105000
      2 C13         -4.6720    -0.1590     0.2090 ca         1 OH1      -0.151600
      3 C15         -6.8770    -0.8830     1.0040 ca         1 OH1      -0.119000
      4 C17         -6.4240    -0.8080    -1.3800 ca         1 OH1      -0.119000
      5 O01          8.1260    -0.8740    -0.4560 oh         1 OH1      -0.666000
      6 C03          5.8370    -0.0380    -0.1200 cc         1 OH1       0.232300
      7 C04          5.6910     0.4240     1.1630 cd         1 OH1      -0.193000
      8 N05          4.3660     0.1730     1.4890 na         1 OH1      -0.302500
      9 C06          3.7850    -0.4250     0.3900 cd         1 OH1       0.402800
     10 C07          2.3480    -0.8630     0.3000 c3         1 OH1      -0.105700
     11 C08          1.3840     0.3010    -0.0230 c3         1 OH1      -0.074400
     12 C09         -0.0930    -0.1420    -0.1140 c3         1 OH1      -0.099400
     13 N11         -2.4420     0.5810    -0.5420 ns         1 OH1      -0.504900
     14 C12         -3.2720     0.3280     0.5310 c          1 OH1       0.612700
     15 C14         -5.5720    -0.4300     1.2660 ca         1 OH1      -0.073000
     16 C16         -7.3040    -1.0720    -0.3190 ca         1 OH1      -0.090000
     17 C18         -5.1180    -0.3550    -1.1230 ca         1 OH1      -0.073000
     18 O19         -2.8890     0.4950     1.6810 o          1 OH1      -0.605100
     19 N20          4.6600    -0.5580    -0.5930 nc         1 OH1      -0.681000
     20 H1          -0.9730     1.7940     0.3400 h1         1 OH1       0.053700
     21 H2          -0.7580     1.4800    -1.3940 h1         1 OH1       0.053700
     22 H3          -7.5570    -1.0870     1.8280 ha         1 OH1       0.117000
     23 H4          -6.7550    -0.9550    -2.4060 ha         1 OH1       0.117000
     24 H5           8.8910    -0.8060    -1.0700 ho         1 OH1       0.445000
     25 H6           7.4620     1.0290    -1.0040 h1         1 OH1       0.032700
     26 H7           6.8410    -0.2930    -1.9980 h1         1 OH1       0.032700
     27 H8           6.4060     0.8910     1.8320 h4         1 OH1       0.168000
     28 H9           3.8960     0.3820     2.3620 hn         1 OH1       0.351000
     29 H10          2.2450    -1.6390    -0.4680 hc         1 OH1       0.063200
     30 H11          2.0490    -1.3270     1.2480 hc         1 OH1       0.063200
     31 H12          1.4820     1.0750     0.7490 hc         1 OH1       0.044200
     32 H13          1.6830     0.7600    -0.9740 hc         1 OH1       0.044200
     33 H14         -0.3900    -0.6010     0.8370 hc         1 OH1       0.050200
     34 H15         -0.1930    -0.9130    -0.8880 hc         1 OH1       0.050200
     35 H16         -2.8290     0.4270    -1.4640 hn         1 OH1       0.316500
     36 H17         -5.2630    -0.2910     2.3000 ha         1 OH1       0.122000
     37 H18         -8.3140    -1.4230    -0.5220 ha         1 OH1       0.115000
     38 H19         -4.4680    -0.1620    -1.9720 ha         1 OH1       0.122000
     39 C02          7.0970    -0.0060    -0.9690 c3         1 OH1       0.145300
@<TRIPOS>BOND
     1     1    12 1   
     2     1    13 1   
     3     1    20 1   
     4     1    21 1   
     5     2    14 1   
     6     2    15 ar  
     7     2    17 ar  
     8     3    15 ar  
     9     3    16 ar  
    10     3    22 1   
    11     4    16 ar  
    12     4    17 ar  
    13     4    23 1   
    14     5    24 1   
    15     5    39 1   
    16     6     7 2   
    17     6    19 1   
    18     6    39 1   
    19     7     8 1   
    20     7    27 1   
    21     8     9 1   
    22     8    28 1   
    23     9    10 1   
    24     9    19 2   
    25    10    11 1   
    26    10    29 1   
    27    10    30 1   
    28    11    12 1   
    29    11    31 1   
    30    11    32 1   
    31    12    33 1   
    32    12    34 1   
    33    13    14 1   
    34    13    35 1   
    35    14    18 2   
    36    15    36 1   
    37    16    37 1   
    38    17    38 1   
    39    25    39 1   
    40    26    39 1   
@<TRIPOS>SUBSTRUCTURE
     1 OH1         1 TEMP              0 ****  ****    0 ROOT
