@<TRIPOS>MOLECULE
OH1
   39    40     1     0     0
SMALL
abcg2


@<TRIPOS>ATOM
      1 C10         -1.0440     0.9650    -0.1220 c3         1 OH1       0.105000
      2 C13         -4.6360    -0.1670     0.2510 ca         1 OH1      -0.151600
      3 C15         -6.9720    -0.3130     0.8340 ca         1 OH1      -0.119000
      4 C17         -6.2170    -1.1280    -1.2980 ca         1 OH1      -0.119000
      5 O01          8.1010     0.4270    -0.1800 oh         1 OH1      -0.666000
      6 C03          5.8160    -0.1280    -0.2330 cc         1 OH1       0.232300
      7 C04          5.6050     0.2020     1.0740 cd         1 OH1      -0.193000
      8 N05          4.2850    -0.0840     1.3030 na         1 OH1      -0.302500
      9 C06          3.7540    -0.5650     0.1590 cd         1 OH1       0.402800
     10 C07          2.3260    -0.9660     0.0240 c3         1 OH1      -0.105700
     11 C08          1.3570     0.2170     0.0660 c3         1 OH1      -0.074400
     12 C09         -0.0860    -0.2190    -0.1520 c3         1 OH1      -0.099400
     13 N11         -2.4250     0.5890    -0.3350 ns         1 OH1      -0.504900
     14 C12         -3.2520     0.2300     0.6580 c          1 OH1       0.612700
     15 C14         -5.6720     0.0400     1.1600 ca         1 OH1      -0.073000
     16 C16         -7.2470    -0.8980    -0.3960 ca         1 OH1      -0.090000
     17 C18         -4.9170    -0.7600    -0.9780 ca         1 OH1      -0.073000
     18 O19         -2.9210     0.2400     1.8380 o          1 OH1      -0.605100
     19 N20          4.6600    -0.6020    -0.7900 nc         1 OH1      -0.681000
     20 H1          -0.9640     1.4890     0.8320 h1         1 OH1       0.053700
     21 H2          -0.7780     1.6810    -0.9000 h1         1 OH1       0.053700
     22 H3          -7.7720    -0.1340     1.5400 ha         1 OH1       0.117000
     23 H4          -6.4230    -1.5990    -2.2490 ha         1 OH1       0.117000
     24 H5           8.9070     0.4990    -0.6990 ho         1 OH1       0.445000
     25 H6           6.9160     0.6510    -1.8750 h1         1 OH1       0.032700
     26 H7           7.3070    -1.0100    -1.4600 h1         1 OH1       0.032700
     27 H8           6.2470     0.5960     1.8430 h4         1 OH1       0.168000
     28 H9           3.8040     0.0360     2.1800 hn         1 OH1       0.351000
     29 H10          2.2220    -1.4940    -0.9250 hc         1 OH1       0.063200
     30 H11          2.0660    -1.6790     0.8120 hc         1 OH1       0.063200
     31 H12          1.4410     0.7330     1.0270 hc         1 OH1       0.044200
     32 H13          1.6410     0.9450    -0.7000 hc         1 OH1       0.044200
     33 H14         -0.3730    -0.9400     0.6190 hc         1 OH1       0.050200
     34 H15         -0.1740    -0.7340    -1.1130 hc         1 OH1       0.050200
     35 H16         -2.7720     0.6200    -1.2790 hn         1 OH1       0.316500
     36 H17         -5.4610     0.4880     2.1220 ha         1 OH1       0.122000
     37 H18         -8.2610    -1.1790    -0.6500 ha         1 OH1       0.115000
     38 H19         -4.1270    -0.9680    -1.6880 ha         1 OH1       0.122000
     39 C02          7.0740    -0.0280    -1.0260 c3         1 OH1       0.145300
@<TRIPOS>BOND
     1     1    12 1   
     2     1    13 1   
     3     1    20 1   
     4     1    21 1   
     5     2    14 1   
     6     2    15 ar  
     7     2    17 ar  
     8     3    15 ar  
     9     3    16 ar  
    10     3    22 1   
    11     4    16 ar  
    12     4    17 ar  
    13     4    23 1   
    14     5    24 1   
    15     5    39 1   
    16     6     7 2   
    17     6    19 1   
    18     6    39 1   
    19     7     8 1   
    20     7    27 1   
    21     8     9 1   
    22     8    28 1   
    23     9    10 1   
    24     9    19 2   
    25    10    11 1   
    26    10    29 1   
    27    10    30 1   
    28    11    12 1   
    29    11    31 1   
    30    11    32 1   
    31    12    33 1   
    32    12    34 1   
    33    13    14 1   
    34    13    35 1   
    35    14    18 2   
    36    15    36 1   
    37    16    37 1   
    38    17    38 1   
    39    25    39 1   
    40    26    39 1   
@<TRIPOS>SUBSTRUCTURE
     1 OH1         1 TEMP              0 ****  ****    0 ROOT
