@<TRIPOS>MOLECULE
OH4
   36    37     1     0     0
SMALL
bcc


@<TRIPOS>ATOM
      1 N12         -2.7680     0.3510     1.3960 na         1 OH4      -0.303900
      2 C13          2.7740    -0.0040     0.2030 ca         1 OH4      -0.124300
      3 C15          4.1220    -1.6770    -0.8990 ca         1 OH4      -0.131500
      4 C17          4.3560    -1.3260     1.4650 ca         1 OH4      -0.131500
      5 O02          1.7680     1.8510    -0.9890 os         1 OH4      -0.402600
      6 C03          1.6820     1.0420     0.1580 c3         1 OH4       0.194400
      7 C04          0.3090     0.3800     0.1640 c3         1 OH4      -0.069400
      8 C05         -0.8430     1.3880     0.1860 c3         1 OH4      -0.099700
      9 C06         -2.1680     0.7120     0.2440 cc         1 OH4       0.401800
     10 N07         -2.8820     0.3270    -0.7880 nd         1 OH4      -0.676000
     11 C08         -3.9820    -0.3030    -0.2770 cd         1 OH4       0.298600
     12 C09         -5.0280    -0.8790    -1.1690 c3         1 OH4       0.121100
     13 O10         -6.0370    -1.4470    -0.3700 oh         1 OH4      -0.604800
     14 C11         -3.9330    -0.3000     1.0870 cc         1 OH4      -0.228600
     15 C14          3.1520    -0.6850    -0.9520 ca         1 OH4      -0.113000
     16 C16          4.7250    -2.0020     0.3100 ca         1 OH4      -0.123000
     17 C18          3.3870    -0.3310     1.4080 ca         1 OH4      -0.113000
     18 H1          -2.4250     0.5280     2.3270 hn         1 OH4       0.297700
     19 H3           4.8260    -1.5660     2.4100 ha         1 OH4       0.131000
     20 H4           2.7890     3.3680    -1.8610 h1         1 OH4       0.031033
     21 H5           2.8150     3.4020    -0.0870 h1         1 OH4       0.031033
     22 H6           3.8200     2.2380    -0.9690 h1         1 OH4       0.031033
     23 H7           1.7660     1.6680     1.0620 h1         1 OH4       0.031700
     24 H8           0.2120    -0.2750    -0.7070 hc         1 OH4       0.058700
     25 H9           0.2500    -0.2660     1.0440 hc         1 OH4       0.058700
     26 H10         -0.7290     2.0570     1.0440 hc         1 OH4       0.063700
     27 H11         -0.8140     2.0090    -0.7090 hc         1 OH4       0.063700
     28 H13         -5.4230    -0.0900    -1.8240 h1         1 OH4       0.033200
     29 H14         -4.5670    -1.6230    -1.8330 h1         1 OH4       0.033200
     30 H15         -6.6790    -1.8660    -0.9490 ho         1 OH4       0.406000
     31 H16         -4.5970    -0.6780     1.8440 h4         1 OH4       0.185000
     32 H17          2.6930    -0.4350    -1.9000 ha         1 OH4       0.134500
     33 H18          5.4820    -2.7740     0.3490 ha         1 OH4       0.130000
     34 H19          3.1100     0.2000     2.3110 ha         1 OH4       0.134500
     35 H2           4.4060    -2.1990    -1.8040 ha         1 OH4       0.131000
     36 C01          2.8510     2.7490    -0.9660 c3         1 OH4       0.120700
@<TRIPOS>BOND
     1     1     9 1   
     2     1    14 1   
     3     1    18 1   
     4     2     6 1   
     5     2    15 ar  
     6     2    17 ar  
     7     3    15 ar  
     8     3    16 ar  
     9     3    35 1   
    10     4    16 ar  
    11     4    17 ar  
    12     4    19 1   
    13     5     6 1   
    14     5    36 1   
    15     6     7 1   
    16     6    23 1   
    17     7     8 1   
    18     7    24 1   
    19     7    25 1   
    20     8     9 1   
    21     8    26 1   
    22     8    27 1   
    23     9    10 2   
    24    10    11 1   
    25    11    12 1   
    26    11    14 2   
    27    12    13 1   
    28    12    28 1   
    29    12    29 1   
    30    13    30 1   
    31    14    31 1   
    32    15    32 1   
    33    16    33 1   
    34    17    34 1   
    35    20    36 1   
    36    21    36 1   
    37    22    36 1   
@<TRIPOS>SUBSTRUCTURE
     1 OH4         1 TEMP              0 ****  ****    0 ROOT
