@<TRIPOS>MOLECULE
OH4
   36    37     1     0     0
SMALL
No Charge or Current Charge


@<TRIPOS>ATOM
      1 N12         -2.8300     0.2420     1.4620 na         1 OH4      -0.303500
      2 C13          2.7980    -0.0310     0.2580 ca         1 OH4      -0.124300
      3 C15          4.0280    -1.9130    -0.7000 ca         1 OH4      -0.113500
      4 C17          4.6920    -1.0050     1.4560 ca         1 OH4      -0.113500
      5 O02          1.7960     1.7650    -1.0400 os         1 OH4      -0.449000
      6 C03          1.6730     1.0060     0.1800 c3         1 OH4       0.217600
      7 C04          0.2730     0.3490     0.1870 c3         1 OH4      -0.069400
      8 C05         -0.8960     1.3620     0.2500 c3         1 OH4      -0.099700
      9 C06         -2.2440     0.7000     0.3080 cc         1 OH4       0.401800
     10 N07         -3.0270     0.4720    -0.7330 nd         1 OH4      -0.676000
     11 C08         -4.1540    -0.1580    -0.2320 cd         1 OH4       0.233300
     12 C09         -5.3120    -0.5900    -1.1180 c3         1 OH4       0.144300
     13 O10         -5.4370    -2.0230    -1.2020 oh         1 OH4      -0.667000
     14 C11         -4.0520    -0.3070     1.1290 cc         1 OH4      -0.196000
     15 C14          2.9930    -0.9660    -0.7810 ca         1 OH4      -0.095000
     16 C16          4.8780    -1.9340     0.4180 ca         1 OH4      -0.105000
     17 C18          3.6570    -0.0570     1.3760 ca         1 OH4      -0.095000
     18 H1          -2.4210     0.3050     2.3870 hn         1 OH4       0.348000
     19 H3           5.3500    -1.0190     2.3220 ha         1 OH4       0.113000
     20 H4           2.9480     3.1780    -2.0630 h1         1 OH4       0.031033
     21 H5           2.9880     3.3210    -0.2930 h1         1 OH4       0.031033
     22 H6           3.8830     2.0120    -1.1050 h1         1 OH4       0.031033
     23 H7           1.7410     1.6760     1.0480 h1         1 OH4       0.031700
     24 H8           0.1590    -0.2800    -0.7040 hc         1 OH4       0.058700
     25 H9           0.2090    -0.3210     1.0540 hc         1 OH4       0.058700
     26 H10         -0.7700     2.0060     1.1280 hc         1 OH4       0.063700
     27 H11         -0.8530     2.0210    -0.6250 hc         1 OH4       0.063700
     28 H13         -6.2350    -0.1550    -0.7120 h1         1 OH4       0.033200
     29 H14         -5.1690    -0.1650    -2.1210 h1         1 OH4       0.033200
     30 H15         -6.1930    -2.2090    -1.8040 ho         1 OH4       0.445000
     31 H16         -4.7330    -0.7480     1.8470 h4         1 OH4       0.167000
     32 H17          2.3450    -0.9550    -1.6540 ha         1 OH4       0.116500
     33 H18          5.6800    -2.6670     0.4810 ha         1 OH4       0.112000
     34 H19          3.5230     0.6570     2.1860 ha         1 OH4       0.116500
     35 H2           4.1730    -2.6300    -1.5050 ha         1 OH4       0.113000
     36 C01          2.9600     2.6070    -1.1260 c3         1 OH4       0.143900
@<TRIPOS>BOND
     1     1     9 1   
     2     1    14 1   
     3     1    18 1   
     4     2     6 1   
     5     2    15 ar  
     6     2    17 ar  
     7     3    15 ar  
     8     3    16 ar  
     9     3    35 1   
    10     4    16 ar  
    11     4    17 ar  
    12     4    19 1   
    13     5     6 1   
    14     5    36 1   
    15     6     7 1   
    16     6    23 1   
    17     7     8 1   
    18     7    24 1   
    19     7    25 1   
    20     8     9 1   
    21     8    26 1   
    22     8    27 1   
    23     9    10 2   
    24    10    11 1   
    25    11    12 1   
    26    11    14 2   
    27    12    13 1   
    28    12    28 1   
    29    12    29 1   
    30    13    30 1   
    31    14    31 1   
    32    15    32 1   
    33    16    33 1   
    34    17    34 1   
    35    20    36 1   
    36    21    36 1   
    37    22    36 1   
@<TRIPOS>SUBSTRUCTURE
     1 OH4         1 TEMP              0 ****  ****    0 ROOT
