@<TRIPOS>MOLECULE
OH5
   31    31     1     0     0
SMALL
bcc


@<TRIPOS>ATOM
      1 NBI         -3.8900    22.6630    13.6260 n8         1 OH5      -0.919800
      2 CBJ         -4.1340    21.2410    13.4120 c3         1 OH5       0.181500
      3 CBL         -3.0230    20.6410    12.5380 c3         1 OH5      -0.049400
      4 CBT         -1.8850    19.9430    13.2990 c3         1 OH5      -0.197700
      5 CBX         -2.3450    18.6090    13.8730 c3         1 OH5      -0.055100
      6 CBU         -1.2280    20.8780    14.3440 c          1 OH5       0.923600
      7 OXT         -1.1460    20.4780    15.5200 o          1 OH5      -0.841800
      8 O           -0.8180    21.9810    13.9100 o          1 OH5      -0.841800
      9 CBM         -5.5020    21.0570    12.7410 c3         1 OH5      -0.038100
     10 CBN         -6.6280    21.6600    13.5300 ca         1 OH5      -0.052300
     11 CBO         -7.1340    21.0080    14.6550 ca         1 OH5      -0.124000
     12 CBP         -8.1500    21.5740    15.4130 ca         1 OH5      -0.136500
     13 CBQ         -8.6820    22.8080    15.0560 ca         1 OH5      -0.148000
     14 CBR         -8.1880    23.4670    13.9390 ca         1 OH5      -0.136500
     15 CBS         -7.1680    22.8980    13.1870 ca         1 OH5      -0.124000
     16 H1          -4.4460    22.9970    14.4030 hn         1 OH5       0.359300
     17 H2          -2.9190    22.7980    13.8840 hn         1 OH5       0.359300
     18 H4          -4.1670    20.6820    14.3610 h1         1 OH5       0.029700
     19 H5          -3.4620    19.9090    11.8530 hc         1 OH5       0.027200
     20 H6          -2.6200    21.4360    11.9070 hc         1 OH5       0.027200
     21 H7          -1.1100    19.7290    12.5520 hc         1 OH5       0.029700
     22 H8          -1.5270    18.0750    14.3570 hc         1 OH5       0.010033
     23 H9          -3.1340    18.7340    14.6160 hc         1 OH5       0.010033
     24 H10         -2.7360    17.9640    13.0830 hc         1 OH5       0.010033
     25 H12         -5.4610    21.5060    11.7440 hc         1 OH5       0.041200
     26 H13         -5.6780    19.9860    12.6040 hc         1 OH5       0.041200
     27 H14         -6.7280    20.0440    14.9370 ha         1 OH5       0.133000
     28 H15         -8.5290    21.0500    16.2810 ha         1 OH5       0.117500
     29 H16         -9.4770    23.2490    15.6430 ha         1 OH5       0.115000
     30 H17         -8.5970    24.4280    13.6510 ha         1 OH5       0.117500
     31 H18         -6.7880    23.4200    12.3160 ha         1 OH5       0.133000
@<TRIPOS>BOND
     1     1     2 1   
     2     1    16 1   
     3     1    17 1   
     4     2     3 1   
     5     2     9 1   
     6     2    18 1   
     7     3     4 1   
     8     3    19 1   
     9     3    20 1   
    10     4     5 1   
    11     4     6 1   
    12     4    21 1   
    13     5    22 1   
    14     5    23 1   
    15     5    24 1   
    16     6     7 1   
    17     6     8 1   
    18     9    10 1   
    19     9    25 1   
    20     9    26 1   
    21    10    11 ar  
    22    10    15 ar  
    23    11    12 ar  
    24    11    27 1   
    25    12    13 ar  
    26    12    28 1   
    27    13    14 ar  
    28    13    29 1   
    29    14    15 ar  
    30    14    30 1   
    31    15    31 1   
@<TRIPOS>SUBSTRUCTURE
     1 OH5         1 TEMP              0 ****  ****    0 ROOT
