@<TRIPOS>MOLECULE
OH5
   31    31     1     0     0
SMALL
No Charge or Current Charge


@<TRIPOS>ATOM
      1 NBI         -3.7800    22.4180    13.9450 n8         1 OH5      -1.030200
      2 CBJ         -4.2170    21.1290    13.3850 c3         1 OH5       0.181500
      3 CBL         -3.0990    20.4900    12.5070 c3         1 OH5      -0.049400
      4 CBT         -1.8320    19.9240    13.2300 c3         1 OH5      -0.197700
      5 CBX         -2.1600    18.8130    14.2580 c3         1 OH5      -0.055100
      6 CBU         -0.8970    21.0100    13.8220 c          1 OH5       0.713000
      7 OXT         -1.2350    21.5950    14.8400 o          1 OH5      -0.736500
      8 O            0.1870    21.1830    13.2840 o          1 OH5      -0.736500
      9 CBM         -5.5470    21.3060    12.6040 c3         1 OH5      -0.038100
     10 CBN         -6.7050    21.7950    13.4720 ca         1 OH5      -0.052300
     11 CBO         -7.2710    20.9440    14.4420 ca         1 OH5      -0.106000
     12 CBP         -8.3410    21.3880    15.2400 ca         1 OH5      -0.118500
     13 CBQ         -8.8530    22.6850    15.0710 ca         1 OH5      -0.130000
     14 CBR         -8.2960    23.5380    14.1040 ca         1 OH5      -0.118500
     15 CBS         -7.2260    23.0940    13.3060 ca         1 OH5      -0.106000
     16 H1          -4.4050    22.6640    14.7190 hn         1 OH5       0.414500
     17 H2          -2.8710    22.2490    14.4120 hn         1 OH5       0.414500
     18 H4          -4.4150    20.4520    14.2260 h1         1 OH5       0.029700
     19 H5          -3.5460    19.6600    11.9460 hc         1 OH5       0.027200
     20 H6          -2.7790    21.2170    11.7500 hc         1 OH5       0.027200
     21 H7          -1.2640    19.4430    12.4230 hc         1 OH5       0.029700
     22 H8          -1.2360    18.3500    14.6250 hc         1 OH5       0.010033
     23 H9          -2.7030    19.2130    15.1210 hc         1 OH5       0.010033
     24 H10         -2.7720    18.0280    13.7990 hc         1 OH5       0.010033
     25 H12         -5.3820    21.9870    11.7600 hc         1 OH5       0.041200
     26 H13         -5.8250    20.3420    12.1590 hc         1 OH5       0.041200
     27 H14         -6.8830    19.9370    14.5780 ha         1 OH5       0.115000
     28 H15         -8.7730    20.7260    15.9870 ha         1 OH5       0.099500
     29 H16         -9.6810    23.0280    15.6880 ha         1 OH5       0.097000
     30 H17         -8.6920    24.5420    13.9720 ha         1 OH5       0.099500
     31 H18         -6.8000    23.7620    12.5610 ha         1 OH5       0.115000
@<TRIPOS>BOND
     1     1     2 1   
     2     1    16 1   
     3     1    17 1   
     4     2     3 1   
     5     2     9 1   
     6     2    18 1   
     7     3     4 1   
     8     3    19 1   
     9     3    20 1   
    10     4     5 1   
    11     4     6 1   
    12     4    21 1   
    13     5    22 1   
    14     5    23 1   
    15     5    24 1   
    16     6     7 1   
    17     6     8 1   
    18     9    10 1   
    19     9    25 1   
    20     9    26 1   
    21    10    11 ar  
    22    10    15 ar  
    23    11    12 ar  
    24    11    27 1   
    25    12    13 ar  
    26    12    28 1   
    27    13    14 ar  
    28    13    29 1   
    29    14    15 ar  
    30    14    30 1   
    31    15    31 1   
@<TRIPOS>SUBSTRUCTURE
     1 OH5         1 TEMP              0 ****  ****    0 ROOT
