@<TRIPOS>MOLECULE
OH7
   32    32     1     0     0
SMALL
No Charge or Current Charge


@<TRIPOS>ATOM
      1 C10         -2.9440    -0.0030     0.9230 c3         1 OH7       0.100000
      2 C13         -6.4840    -0.1780    -0.5790 c3         1 OH7      -0.180100
      3 O01          5.4000     2.0040     0.4140 oh         1 OH7      -0.667000
      4 C03          3.9150     0.1810    -0.3100 cc         1 OH7       0.234300
      5 C04          3.9580    -0.8400     0.6050 cd         1 OH7      -0.192000
      6 N05          2.6930    -1.4090     0.5710 na         1 OH7      -0.303500
      7 C06          1.9570    -0.7050    -0.3580 cd         1 OH7       0.400800
      8 C07          0.5210    -0.9810    -0.7160 c3         1 OH7      -0.103700
      9 C08         -0.4770    -0.3510     0.2820 c3         1 OH7      -0.074400
     10 C09         -1.9530    -0.6350    -0.0760 c3         1 OH7      -0.095400
     11 N11         -4.3380    -0.3020     0.5810 ns         1 OH7      -0.509900
     12 C12         -5.0630     0.3400    -0.3970 c          1 OH7       0.601100
     13 O14         -4.6070     1.2560    -1.0640 o          1 OH7      -0.607100
     14 N15          2.6800     0.2590    -0.9030 nc         1 OH7      -0.677000
     15 H1          -2.7430    -0.3900     1.9310 h1         1 OH7       0.055200
     16 H2          -2.8050     1.0860     0.9450 h1         1 OH7       0.055200
     17 H3          -6.4490    -1.2550    -0.7740 hc         1 OH7       0.059033
     18 H4          -7.0070    -0.1330     0.3840 hc         1 OH7       0.059033
     19 H5          -7.0330     0.3580    -1.3620 hc         1 OH7       0.059033
     20 H6           6.1160     2.5930     0.0860 ho         1 OH7       0.445000
     21 H7           4.7350     1.7290    -1.5480 h1         1 OH7       0.033700
     22 H8           5.9100     0.5360    -0.9830 h1         1 OH7       0.033700
     23 H9           4.7640    -1.1790     1.2470 h4         1 OH7       0.168000
     24 H10          2.3560    -2.1920     1.1190 hn         1 OH7       0.349000
     25 H11          0.3110    -0.6020    -1.7230 hc         1 OH7       0.060200
     26 H12          0.3570    -2.0650    -0.7550 hc         1 OH7       0.060200
     27 H13         -0.2700    -0.7350     1.2900 hc         1 OH7       0.049700
     28 H14         -0.3150     0.7340     0.3150 hc         1 OH7       0.049700
     29 H15         -2.1160    -1.7190    -0.1060 hc         1 OH7       0.043200
     30 H16         -2.1590    -0.2510    -1.0830 hc         1 OH7       0.043200
     31 H17         -4.8090    -1.0470     1.0820 hn         1 OH7       0.307500
     32 C02          5.0410     1.1330    -0.6770 c3         1 OH7       0.144300
@<TRIPOS>BOND
     1     1    10 1   
     2     1    11 1   
     3     1    15 1   
     4     1    16 1   
     5     2    12 1   
     6     2    17 1   
     7     2    18 1   
     8     2    19 1   
     9     3    20 1   
    10     3    32 1   
    11     4     5 2   
    12     4    14 1   
    13     4    32 1   
    14     5     6 1   
    15     5    23 1   
    16     6     7 1   
    17     6    24 1   
    18     7     8 1   
    19     7    14 2   
    20     8     9 1   
    21     8    25 1   
    22     8    26 1   
    23     9    10 1   
    24     9    27 1   
    25     9    28 1   
    26    10    29 1   
    27    10    30 1   
    28    11    12 1   
    29    11    31 1   
    30    12    13 2   
    31    21    32 1   
    32    22    32 1   
@<TRIPOS>SUBSTRUCTURE
     1 OH7         1 TEMP              0 ****  ****    0 ROOT
