@<TRIPOS>MOLECULE
OH7
   32    32     1     0     0
SMALL
abcg2


@<TRIPOS>ATOM
      1 C10         -2.9240     0.0230     0.4790 c3         1 OH7       0.100000
      2 C13         -6.6280    -0.2550    -0.2980 c3         1 OH7      -0.180100
      3 O01          6.0540     1.1310     0.2810 oh         1 OH7      -0.667000
      4 C03          3.9140     0.2920    -0.2240 cc         1 OH7       0.234300
      5 C04          3.8510    -0.4960     0.8870 cd         1 OH7      -0.192000
      6 N05          2.6230    -1.1000     0.8230 na         1 OH7      -0.303500
      7 C06          2.0010    -0.6710    -0.2940 cd         1 OH7       0.400800
      8 C07          0.6200    -1.0820    -0.6690 c3         1 OH7      -0.103700
      9 C08         -0.4560    -0.3220     0.1100 c3         1 OH7      -0.074400
     10 C09         -1.8620    -0.7340    -0.3040 c3         1 OH7      -0.095400
     11 N11         -4.2540    -0.3990     0.1010 ns         1 OH7      -0.509900
     12 C12         -5.3300     0.4040     0.0970 c          1 OH7       0.601100
     13 O14         -5.2790     1.5930     0.3880 o          1 OH7      -0.607100
     14 N15          2.7600     0.1760    -0.9490 nc         1 OH7      -0.677000
     15 H1          -2.7680    -0.1250     1.5530 h1         1 OH7       0.055200
     16 H2          -2.8340     1.0930     0.2900 h1         1 OH7       0.055200
     17 H3          -6.5240    -1.3010    -0.5820 hc         1 OH7       0.059033
     18 H4          -7.3310    -0.1930     0.5330 hc         1 OH7       0.059033
     19 H5          -7.0690     0.2880    -1.1340 hc         1 OH7       0.059033
     20 H6           6.7770     1.6830    -0.0300 ho         1 OH7       0.445000
     21 H7           4.6390     2.1980    -0.8130 h1         1 OH7       0.033700
     22 H8           5.3720     0.8490    -1.6650 h1         1 OH7       0.033700
     23 H9           4.5420    -0.6880     1.6900 h4         1 OH7       0.168000
     24 H10          2.2580    -1.7590     1.4930 hn         1 OH7       0.349000
     25 H11          0.4940    -0.9030    -1.7390 hc         1 OH7       0.060200
     26 H12          0.4950    -2.1570    -0.5100 hc         1 OH7       0.060200
     27 H13         -0.3250    -0.4970     1.1820 hc         1 OH7       0.049700
     28 H14         -0.3240     0.7520    -0.0490 hc         1 OH7       0.049700
     29 H15         -1.9850    -1.8110    -0.1490 hc         1 OH7       0.043200
     30 H16         -2.0010    -0.5520    -1.3740 hc         1 OH7       0.043200
     31 H17         -4.3900    -1.3790    -0.0870 hn         1 OH7       0.307500
     32 C02          5.0240     1.1780    -0.6760 c3         1 OH7       0.144300
@<TRIPOS>BOND
     1     1    10 1   
     2     1    11 1   
     3     1    15 1   
     4     1    16 1   
     5     2    12 1   
     6     2    17 1   
     7     2    18 1   
     8     2    19 1   
     9     3    20 1   
    10     3    32 1   
    11     4     5 2   
    12     4    14 1   
    13     4    32 1   
    14     5     6 1   
    15     5    23 1   
    16     6     7 1   
    17     6    24 1   
    18     7     8 1   
    19     7    14 2   
    20     8     9 1   
    21     8    25 1   
    22     8    26 1   
    23     9    10 1   
    24     9    27 1   
    25     9    28 1   
    26    10    29 1   
    27    10    30 1   
    28    11    12 1   
    29    11    31 1   
    30    12    13 2   
    31    21    32 1   
    32    22    32 1   
@<TRIPOS>SUBSTRUCTURE
     1 OH7         1 TEMP              0 ****  ****    0 ROOT
