@<TRIPOS>MOLECULE
OH8
   66    69     1     0     0
SMALL
bcc


@<TRIPOS>ATOM
      1 C1         -11.2090   -14.7630    -1.7460 ca         1 OH8      -0.181000
      2 C2         -10.6940   -15.8990    -1.1220 cp         1 OH8      -0.107300
      3 C3          -9.7490   -15.7180    -0.1170 ca         1 OH8       0.364200
      4 C5          -9.8070   -13.4480    -0.3290 ca         1 OH8       0.369200
      5 C6         -10.7690   -13.5090    -1.3440 ca         1 OH8       0.039800
      6 C8         -12.2440   -12.2780    -2.8000 c3         1 OH8       0.155100
      7 C11        -11.1570   -17.2470    -1.5020 cp         1 OH8      -0.071000
      8 C12        -12.4840   -17.4660    -1.8200 ca         1 OH8      -0.028000
      9 C15        -10.6070   -19.6030    -1.8670 ca         1 OH8      -0.149000
     10 C16        -10.2340   -18.3240    -1.5340 ca         1 OH8      -0.076000
     11 C19        -14.1140   -19.3900    -2.5320 cc         1 OH8       0.297900
     12 C23        -18.1140   -18.7350    -4.5790 c6         1 OH8      -0.088700
     13 C24        -17.8470   -19.8590    -5.5740 c6         1 OH8      -0.072400
     14 C27        -19.9090   -17.9400    -6.1530 c6         1 OH8       0.170300
     15 C30        -20.3540   -20.0740    -9.1680 c3         1 OH8       0.132400
     16 C32        -21.0370   -20.8560   -11.2620 c3         1 OH8       0.126700
     17 N4          -9.3170   -14.5220     0.2610 nb         1 OH8      -0.638000
     18 O7         -11.1620   -12.3360    -1.8600 os         1 OH8      -0.325900
     19 C9         -12.1460   -10.9220    -3.4670 c3         1 OH8      -0.108600
     20 C10        -13.5770   -12.4790    -2.0990 c3         1 OH8      -0.108600
     21 C13        -12.8900   -18.7590    -2.1660 ca         1 OH8      -0.187900
     22 C14        -11.9540   -19.8050    -2.1800 ca         1 OH8      -0.049200
     23 N17        -12.6420   -20.9180    -2.5350 na         1 OH8       0.007900
     24 N18        -13.9230   -20.6720    -2.7440 nd         1 OH8      -0.515100
     25 C20        -15.4420   -18.7560    -2.6770 c          1 OH8       0.620800
     26 N21        -16.4590   -19.5910    -2.9230 ns         1 OH8      -0.557900
     27 C22        -17.8180   -19.1480    -3.1390 c3         1 OH8       0.110000
     28 C25        -18.2520   -19.4490    -6.9810 c6         1 OH8       0.170300
     29 N26        -19.6520   -19.0630    -7.0390 n3         1 OH8      -0.725600
     30 C28        -19.5650   -18.2860    -4.7130 c6         1 OH8      -0.072400
     31 C29        -20.0910   -18.7910    -8.3940 c3         1 OH8       0.164800
     32 O31        -20.7730   -19.7300   -10.4660 os         1 OH8      -0.412600
     33 O33        -15.5620   -17.5420    -2.5590 o          1 OH8      -0.607100
     34 H1         -11.9250   -14.8800    -2.5470 ha         1 OH8       0.146000
     35 H2          -9.3410   -16.5700     0.4150 h4         1 OH8       0.020100
     36 H3          -9.4360   -12.4820    -0.0020 h4         1 OH8       0.032100
     37 H4         -12.1030   -13.0520    -3.5620 h1         1 OH8       0.043700
     38 H5         -13.2080   -16.6640    -1.7810 ha         1 OH8       0.163000
     39 H6          -9.8870   -20.4090    -1.8910 ha         1 OH8       0.141000
     40 H7          -9.1940   -18.1310    -1.3070 ha         1 OH8       0.138000
     41 H8         -17.4650   -17.8880    -4.8320 hc         1 OH8       0.063700
     42 H9         -18.4120   -20.7500    -5.2800 hc         1 OH8       0.046950
     43 H10        -16.7900   -20.1350    -5.5740 hc         1 OH8       0.046950
     44 H11        -19.3390   -17.0440    -6.4590 h1         1 OH8       0.032450
     45 H12        -20.9670   -17.6750    -6.2220 h1         1 OH8       0.032450
     46 H13        -21.1250   -20.6590    -8.6460 h1         1 OH8       0.027700
     47 H14        -19.4540   -20.7020    -9.2120 h1         1 OH8       0.027700
     48 H15        -21.3450   -20.5090   -12.2480 h1         1 OH8       0.027700
     49 H16        -20.1510   -21.4920   -11.3810 h1         1 OH8       0.027700
     50 H17        -21.8410   -21.4760   -10.8470 h1         1 OH8       0.027700
     51 H18        -12.9310   -10.8230    -4.2170 hc         1 OH8       0.048700
     52 H19        -12.2690   -10.1150    -2.7430 hc         1 OH8       0.048700
     53 H20        -11.1870   -10.7970    -3.9700 hc         1 OH8       0.048700
     54 H21        -13.6470   -13.4450    -1.5990 hc         1 OH8       0.048700
     55 H22        -13.7440   -11.6990    -1.3540 hc         1 OH8       0.048700
     56 H23        -14.3870   -12.4300    -2.8280 hc         1 OH8       0.048700
     57 H24        -12.2880   -21.8540    -2.6510 hn         1 OH8       0.330700
     58 H25        -16.2550   -20.5730    -3.0190 hn         1 OH8       0.331500
     59 H26        -18.0330   -18.3180    -2.4640 h1         1 OH8       0.055200
     60 H27        -18.4770   -19.9700    -2.8510 h1         1 OH8       0.055200
     61 H28        -18.0750   -20.2830    -7.6610 h1         1 OH8       0.032450
     62 H29        -17.6020   -18.6240    -7.3230 h1         1 OH8       0.032450
     63 H31        -19.7610   -17.4190    -4.0760 hc         1 OH8       0.046950
     64 H32        -20.2270   -19.0890    -4.3700 hc         1 OH8       0.046950
     65 H33        -19.3720   -18.1630    -8.9460 h1         1 OH8       0.043200
     66 H34        -21.0270   -18.2270    -8.3480 h1         1 OH8       0.043200
@<TRIPOS>BOND
     1     1     2 ar  
     2     1     5 ar  
     3     1    34 1   
     4     2     3 ar  
     5     2     7 1   
     6     3    17 ar  
     7     3    35 1   
     8     4     5 ar  
     9     4    17 ar  
    10     4    36 1   
    11     5    18 1   
    12     6    18 1   
    13     6    19 1   
    14     6    20 1   
    15     6    37 1   
    16     7     8 ar  
    17     7    10 ar  
    18     8    21 ar  
    19     8    38 1   
    20     9    10 ar  
    21     9    22 ar  
    22     9    39 1   
    23    10    40 1   
    24    11    21 1   
    25    11    24 2   
    26    11    25 1   
    27    12    13 1   
    28    12    27 1   
    29    12    30 1   
    30    12    41 1   
    31    13    28 1   
    32    13    42 1   
    33    13    43 1   
    34    14    29 1   
    35    14    30 1   
    36    14    44 1   
    37    14    45 1   
    38    15    31 1   
    39    15    32 1   
    40    15    46 1   
    41    15    47 1   
    42    16    32 1   
    43    16    48 1   
    44    16    49 1   
    45    16    50 1   
    46    19    51 1   
    47    19    52 1   
    48    19    53 1   
    49    20    54 1   
    50    20    55 1   
    51    20    56 1   
    52    21    22 ar  
    53    22    23 1   
    54    23    24 1   
    55    23    57 1   
    56    25    26 1   
    57    25    33 2   
    58    26    27 1   
    59    26    58 1   
    60    27    59 1   
    61    27    60 1   
    62    28    29 1   
    63    28    61 1   
    64    28    62 1   
    65    29    31 1   
    66    30    63 1   
    67    30    64 1   
    68    31    65 1   
    69    31    66 1   
@<TRIPOS>SUBSTRUCTURE
     1 OH8         1 TEMP              0 ****  ****    0 ROOT
