@<TRIPOS>MOLECULE
OH8
   66    69     1     0     0
SMALL
No Charge or Current Charge


@<TRIPOS>ATOM
      1 C1         -11.3580   -14.9010    -2.1190 ca         1 OH8      -0.163000
      2 C2         -10.7180   -15.9440    -1.4010 cp         1 OH8      -0.042000
      3 C3          -9.6440   -15.5810    -0.5420 ca         1 OH8       0.298900
      4 C5          -9.8360   -13.3330    -1.0660 ca         1 OH8       0.303900
      5 C6         -10.9180   -13.5700    -1.9450 ca         1 OH8       0.105100
      6 C8         -12.7060   -12.5800    -3.3690 c3         1 OH8       0.178300
      7 C11        -11.1550   -17.3700    -1.5450 cp         1 OH8      -0.071000
      8 C12        -12.5250   -17.6940    -1.7650 ca         1 OH8      -0.010000
      9 C15        -10.6110   -19.7860    -1.5920 ca         1 OH8      -0.131000
     10 C16        -10.2100   -18.4390    -1.4600 ca         1 OH8      -0.058000
     11 C19        -14.1630   -19.7060    -2.1170 cc         1 OH8       0.297900
     12 C23        -18.1770   -18.8690    -4.1540 c6         1 OH8      -0.088700
     13 C24        -17.8410   -19.9050    -5.2600 c6         1 OH8      -0.072400
     14 C27        -19.8890   -17.8680    -5.7690 c6         1 OH8       0.170300
     15 C30        -19.8200   -19.5110    -9.2830 c3         1 OH8       0.155600
     16 C32        -20.2850   -19.8360   -11.6350 c3         1 OH8       0.149900
     17 N4          -9.2040   -14.3110    -0.3710 nb         1 OH8      -0.638000
     18 O7         -11.4830   -12.4940    -2.6120 os         1 OH8      -0.349100
     19 C9         -12.7920   -11.2950    -4.2120 c3         1 OH8      -0.108600
     20 C10        -13.8890   -12.7090    -2.3830 c3         1 OH8      -0.108600
     21 C13        -12.8880   -19.0440    -1.8930 ca         1 OH8      -0.187900
     22 C14        -11.9680   -20.0400    -1.8100 ca         1 OH8      -0.049200
     23 N17        -12.6340   -21.2340    -1.9730 na         1 OH8      -0.042400
     24 N18        -14.0090   -21.0500    -2.1660 nd         1 OH8      -0.515100
     25 C20        -15.4810   -18.9870    -2.2760 c          1 OH8       0.553800
     26 N21        -16.5500   -19.8410    -2.4830 ns         1 OH8      -0.490900
     27 C22        -17.9340   -19.4210    -2.7200 c3         1 OH8       0.110000
     28 C25        -18.1450   -19.3450    -6.6710 c6         1 OH8       0.170300
     29 N26        -19.5630   -18.8960    -6.7960 n3         1 OH8      -0.725600
     30 C28        -19.6410   -18.3900    -4.3330 c6         1 OH8      -0.072400
     31 C29        -19.9200   -18.4360    -8.1690 c3         1 OH8       0.164800
     32 O31        -20.3140   -18.9410   -10.5100 os         1 OH8      -0.459000
     33 O33        -15.6380   -17.7700    -2.2320 o          1 OH8      -0.607100
     34 H1         -12.1640   -15.1400    -2.8040 ha         1 OH8       0.128000
     35 H2          -9.1230   -16.3390     0.0410 h4         1 OH8       0.020100
     36 H3          -9.4650   -12.3200    -0.9140 h4         1 OH8       0.032100
     37 H4         -12.6910   -13.4360    -4.0560 h1         1 OH8       0.043700
     38 H5         -13.2760   -16.9100    -1.8190 ha         1 OH8       0.145000
     39 H6          -9.8860   -20.5950    -1.5300 ha         1 OH8       0.123000
     40 H7          -9.1560   -18.2220    -1.3030 ha         1 OH8       0.120000
     41 H8         -17.5150   -18.0000    -4.2750 hc         1 OH8       0.063700
     42 H9         -18.4210   -20.8250    -5.1010 hc         1 OH8       0.046950
     43 H10        -16.7810   -20.1910    -5.2070 hc         1 OH8       0.046950
     44 H11        -19.2840   -16.9630    -5.9310 h1         1 OH8       0.032450
     45 H12        -20.9450   -17.5690    -5.8530 h1         1 OH8       0.032450
     46 H13        -20.4180   -20.3860    -8.9960 h1         1 OH8       0.027700
     47 H14        -18.7760   -19.8280    -9.4030 h1         1 OH8       0.027700
     48 H15        -20.6750   -19.3360   -12.5310 h1         1 OH8       0.027700
     49 H16        -19.2590   -20.1640   -11.8460 h1         1 OH8       0.027700
     50 H17        -20.9020   -20.7240   -11.4430 h1         1 OH8       0.027700
     51 H18        -13.7070   -11.2920    -4.8160 hc         1 OH8       0.048700
     52 H19        -12.7990   -10.4050    -3.5710 hc         1 OH8       0.048700
     53 H20        -11.9350   -11.2250    -4.8930 hc         1 OH8       0.048700
     54 H21        -13.8330   -13.6410    -1.8110 hc         1 OH8       0.048700
     55 H22        -13.8990   -11.8700    -1.6770 hc         1 OH8       0.048700
     56 H23        -14.8410   -12.7080    -2.9280 hc         1 OH8       0.048700
     57 H24        -12.2150   -22.1640    -1.9600 hn         1 OH8       0.381000
     58 H25        -16.3280   -20.8310    -2.5000 hn         1 OH8       0.331500
     59 H26        -18.1990   -18.6480    -1.9860 h1         1 OH8       0.055200
     60 H27        -18.5930   -20.2840    -2.5510 h1         1 OH8       0.055200
     61 H28        -17.9200   -20.1340    -7.4030 h1         1 OH8       0.032450
     62 H29        -17.4620   -18.5080    -6.8790 h1         1 OH8       0.032450
     63 H31        -19.8690   -17.5950    -3.6100 hc         1 OH8       0.046950
     64 H32        -20.3350   -19.2150    -4.1220 hc         1 OH8       0.046950
     65 H33        -19.2830   -17.5870    -8.4520 h1         1 OH8       0.043200
     66 H34        -20.9560   -18.0700    -8.1650 h1         1 OH8       0.043200
@<TRIPOS>BOND
     1     1     2 ar  
     2     1     5 ar  
     3     1    34 1   
     4     2     3 ar  
     5     2     7 1   
     6     3    17 ar  
     7     3    35 1   
     8     4     5 ar  
     9     4    17 ar  
    10     4    36 1   
    11     5    18 1   
    12     6    18 1   
    13     6    19 1   
    14     6    20 1   
    15     6    37 1   
    16     7     8 ar  
    17     7    10 ar  
    18     8    21 ar  
    19     8    38 1   
    20     9    10 ar  
    21     9    22 ar  
    22     9    39 1   
    23    10    40 1   
    24    11    21 1   
    25    11    24 2   
    26    11    25 1   
    27    12    13 1   
    28    12    27 1   
    29    12    30 1   
    30    12    41 1   
    31    13    28 1   
    32    13    42 1   
    33    13    43 1   
    34    14    29 1   
    35    14    30 1   
    36    14    44 1   
    37    14    45 1   
    38    15    31 1   
    39    15    32 1   
    40    15    46 1   
    41    15    47 1   
    42    16    32 1   
    43    16    48 1   
    44    16    49 1   
    45    16    50 1   
    46    19    51 1   
    47    19    52 1   
    48    19    53 1   
    49    20    54 1   
    50    20    55 1   
    51    20    56 1   
    52    21    22 ar  
    53    22    23 1   
    54    23    24 1   
    55    23    57 1   
    56    25    26 1   
    57    25    33 2   
    58    26    27 1   
    59    26    58 1   
    60    27    59 1   
    61    27    60 1   
    62    28    29 1   
    63    28    61 1   
    64    28    62 1   
    65    29    31 1   
    66    30    63 1   
    67    30    64 1   
    68    31    65 1   
    69    31    66 1   
@<TRIPOS>SUBSTRUCTURE
     1 OH8         1 TEMP              0 ****  ****    0 ROOT
