@<TRIPOS>MOLECULE
OH9
   43    45     1     0     0
SMALL
No Charge or Current Charge


@<TRIPOS>ATOM
      1 C2          23.0580    -1.1510    -7.9780 ca         1 OH9       0.145900
      2 C4          22.3590    -3.1560    -7.1220 ca         1 OH9       0.108500
      3 C01         19.8490   -10.6980    -2.3350 c3         1 OH9       0.229900
      4 C5          18.6560    -7.0070    -7.1510 c3         1 OH9       0.219600
      5 C9          19.4640    -6.5580    -8.4100 c5         1 OH9       0.162300
      6 C1          21.4580    -5.3270    -8.0420 c5         1 OH9       0.288300
      7 C8          21.8930    -4.7190    -5.5990 cc         1 OH9       0.469700
      8 C10         22.6630    -2.7210    -5.8560 ca         1 OH9      -0.083600
      9 C6          23.1920    -1.4200    -5.7090 ca         1 OH9       0.431900
     10 C7          21.7970    -6.8530    -7.8960 c5         1 OH9       0.087300
     11 C3          20.6800    -7.4780    -8.7730 c5         1 OH9       0.151300
     12 N9          21.8750    -4.4240    -6.9690 na         1 OH9      -0.284300
     13 N7          22.3800    -3.6830    -4.8820 nd         1 OH9      -0.577100
     14 N6          23.5230    -0.8880    -4.5020 nv         1 OH9      -1.081900
     15 N1          23.3900    -0.6260    -6.7730 nb         1 OH9      -0.327000
     16 N3          22.5500    -2.3850    -8.2120 nb         1 OH9      -0.207000
     17 O1B         20.5120    -9.5000    -2.7390 os         1 OH9      -0.605400
     18 O2B         21.2470   -10.5290    -4.9540 o          1 OH9      -0.860000
     19 O3B         21.8130    -8.1900    -4.5370 o          1 OH9      -0.860000
     20 O3A         19.3450    -8.8970    -4.7930 os         1 OH9      -0.728800
     21 O1A         19.4260    -6.7240    -3.3790 o          1 OH9      -0.852500
     22 O2A         17.3670    -7.3690    -4.5330 o          1 OH9      -0.852500
     23 O4          20.0260    -5.2270    -8.2240 os         1 OH9      -0.450000
     24 O2          23.1090    -7.2120    -8.3960 oh         1 OH9      -0.731000
     25 O3          21.0640    -7.3990   -10.1560 oh         1 OH9      -0.742000
     26 PB          20.7990    -9.2600    -4.3070 p5         1 OH9       1.476800
     27 PA          18.8590    -7.4150    -4.5730 p5         1 OH9       1.472800
     28 H2          23.2160    -0.5170    -8.8480 h5         1 OH9       0.023100
     29 H1          19.5300   -10.6180    -1.2880 h1         1 OH9      -0.001633
     30 H3          18.9580   -10.8840    -2.9480 h1         1 OH9      -0.001633
     31 H4          20.5210   -11.5610    -2.4210 h1         1 OH9      -0.001633
     32 H5'1        17.7180    -6.4370    -7.1290 h1         1 OH9       0.049200
     33 H5'2        18.3950    -8.0690    -7.2570 h1         1 OH9       0.049200
     34 H10         18.7560    -6.5230    -9.2480 h1         1 OH9       0.057700
     35 H7          21.9430    -4.9510    -8.9510 h2         1 OH9       0.080700
     36 H8          21.5560    -5.6670    -5.1960 h5         1 OH9       0.134800
     37 H6          21.6740    -7.1840    -6.8570 h1         1 OH9       0.113700
     38 H9          20.4890    -8.5220    -8.4810 h1         1 OH9       0.113700
     39 HN61        23.6160     0.1220    -4.4350 hn         1 OH9       0.495500
     40 HN62        23.1850    -1.3740    -3.6750 hn         1 OH9       0.495500
     41 HO2         23.7650    -7.0120    -7.6850 ho         1 OH9       0.509000
     42 HO3         22.0540    -7.3990   -10.1030 ho         1 OH9       0.506000
     43 O5          19.4020    -6.7740    -5.9450 os         1 OH9      -0.624400
@<TRIPOS>BOND
     1     1    15 ar  
     2     1    16 ar  
     3     1    28 1   
     4     2     8 ar  
     5     2    12 1   
     6     2    16 ar  
     7     3    17 1   
     8     3    29 1   
     9     3    30 1   
    10     3    31 1   
    11     4     5 1   
    12     4    32 1   
    13     4    33 1   
    14     4    43 1   
    15     5    11 1   
    16     5    23 1   
    17     5    34 1   
    18     6    10 1   
    19     6    12 1   
    20     6    23 1   
    21     6    35 1   
    22     7    12 1   
    23     7    13 2   
    24     7    36 1   
    25     8     9 ar  
    26     8    13 1   
    27     9    14 1   
    28     9    15 ar  
    29    10    11 1   
    30    10    24 1   
    31    10    37 1   
    32    11    25 1   
    33    11    38 1   
    34    14    39 1   
    35    14    40 1   
    36    17    26 1   
    37    18    26 1   
    38    19    26 1   
    39    20    26 1   
    40    20    27 1   
    41    21    27 1   
    42    22    27 1   
    43    24    41 1   
    44    25    42 1   
    45    27    43 1   
@<TRIPOS>SUBSTRUCTURE
     1 OH9         1 TEMP              0 ****  ****    0 ROOT
