@<TRIPOS>MOLECULE
OH9
   43    45     1     0     0
SMALL
abcg2


@<TRIPOS>ATOM
      1 C2          22.9610    -1.0620    -7.8850 ca         1 OH9       0.145900
      2 C4          22.2900    -2.9660    -7.0200 ca         1 OH9       0.108500
      3 C01         20.3080   -10.4810    -2.4030 c3         1 OH9       0.229900
      4 C5          19.1020    -7.3540    -7.2400 c3         1 OH9       0.219600
      5 C9          19.9110    -6.7410    -8.3610 c5         1 OH9       0.162300
      6 C1          21.5880    -5.1720    -7.9670 c5         1 OH9       0.288300
      7 C8          21.6940    -4.4660    -5.5410 cc         1 OH9       0.469700
      8 C10         22.3550    -2.4680    -5.7280 ca         1 OH9      -0.083600
      9 C6          22.7740    -1.1330    -5.5940 ca         1 OH9       0.431900
     10 C7          22.2180    -6.5620    -7.8040 c5         1 OH9       0.087300
     11 C3          21.2560    -7.4200    -8.6210 c5         1 OH9       0.151300
     12 N9          21.8710    -4.2610    -6.8860 na         1 OH9      -0.284300
     13 N7          21.9760    -3.4230    -4.8190 nd         1 OH9      -0.577100
     14 N6          22.8940    -0.5300    -4.4090 nv         1 OH9      -1.081900
     15 N1          23.0730    -0.4540    -6.7070 nb         1 OH9      -0.327000
     16 N3          22.5810    -2.3030    -8.1360 nb         1 OH9      -0.207000
     17 O1B         20.4840   -10.4780    -3.8040 os         1 OH9      -0.605400
     18 O2B         18.1210   -11.3730    -4.2670 o          1 OH9      -0.860000
     19 O3B         19.7020   -10.5360    -6.1710 o          1 OH9      -0.860000
     20 O3A         18.5650    -8.9250    -4.4980 os         1 OH9      -0.728800
     21 O1A         20.3890    -7.2920    -3.6480 o          1 OH9      -0.852500
     22 O2A         18.0620    -6.4760    -4.5060 o          1 OH9      -0.852500
     23 O4          20.2070    -5.3750    -8.0610 os         1 OH9      -0.450000
     24 O2          23.5210    -6.6440    -8.3030 oh         1 OH9      -0.731000
     25 O3          21.5270    -7.3240    -9.9990 oh         1 OH9      -0.742000
     26 PB          19.1700   -10.4360    -4.7780 p5         1 OH9       1.476800
     27 PA          19.2190    -7.4220    -4.5720 p5         1 OH9       1.472800
     28 H2          23.2160    -0.4570    -8.7480 h5         1 OH9       0.023100
     29 H1          21.2960   -10.4790    -1.9430 h1         1 OH9      -0.001633
     30 H3          19.7730    -9.5960    -2.0510 h1         1 OH9      -0.001633
     31 H4          19.7730   -11.3690    -2.0580 h1         1 OH9      -0.001633
     32 H5'1        18.1900    -6.7640    -7.0960 h1         1 OH9       0.049200
     33 H5'2        18.7990    -8.3620    -7.5390 h1         1 OH9       0.049200
     34 H10         19.2990    -6.7820    -9.2680 h1         1 OH9       0.057700
     35 H7          21.9820    -4.6950    -8.8700 h2         1 OH9       0.080700
     36 H8          21.3580    -5.4120    -5.1430 h5         1 OH9       0.134800
     37 H6          22.1650    -6.8800    -6.7590 h1         1 OH9       0.113700
     38 H9          21.2550    -8.4640    -8.2820 h1         1 OH9       0.113700
     39 HN61        23.1360     0.4460    -4.3610 hn         1 OH9       0.495500
     40 HN62        22.6120    -0.9920    -3.5620 hn         1 OH9       0.495500
     41 HO2         24.1340    -6.3200    -7.6370 ho         1 OH9       0.509000
     42 HO3         22.4410    -7.5890   -10.1490 ho         1 OH9       0.506000
     43 O5          19.8840    -7.3930    -6.0730 os         1 OH9      -0.624400
@<TRIPOS>BOND
     1     1    15 ar  
     2     1    16 ar  
     3     1    28 1   
     4     2     8 ar  
     5     2    12 1   
     6     2    16 ar  
     7     3    17 1   
     8     3    29 1   
     9     3    30 1   
    10     3    31 1   
    11     4     5 1   
    12     4    32 1   
    13     4    33 1   
    14     4    43 1   
    15     5    11 1   
    16     5    23 1   
    17     5    34 1   
    18     6    10 1   
    19     6    12 1   
    20     6    23 1   
    21     6    35 1   
    22     7    12 1   
    23     7    13 2   
    24     7    36 1   
    25     8     9 ar  
    26     8    13 1   
    27     9    14 1   
    28     9    15 ar  
    29    10    11 1   
    30    10    24 1   
    31    10    37 1   
    32    11    25 1   
    33    11    38 1   
    34    14    39 1   
    35    14    40 1   
    36    17    26 1   
    37    18    26 1   
    38    19    26 1   
    39    20    26 1   
    40    20    27 1   
    41    21    27 1   
    42    22    27 1   
    43    24    41 1   
    44    25    42 1   
    45    27    43 1   
@<TRIPOS>SUBSTRUCTURE
     1 OH9         1 TEMP              0 ****  ****    0 ROOT
