@<TRIPOS>MOLECULE
OHA
   48    47     1     0     0
SMALL
No Charge or Current Charge


@<TRIPOS>ATOM
      1 O2          -8.1490   -11.9870    -6.3510 o          1 OHA      -0.743500
      2 C16         -7.2480   -11.7030    -7.1260 c          1 OHA       0.717000
      3 O3          -6.8840   -12.4330    -8.0350 o          1 OHA      -0.743500
      4 C15         -6.4920   -10.3800    -6.9080 c3         1 OHA      -0.204400
      5 C14         -5.2950   -10.5990    -5.9510 c3         1 OHA      -0.054400
      6 C13         -4.4850    -9.3100    -5.6840 c3         1 OHA      -0.079400
      7 C12         -3.2920    -9.5320    -4.7280 c3         1 OHA      -0.075400
      8 C11         -2.4830    -8.2440    -4.4610 c3         1 OHA      -0.075400
      9 C10         -1.2900    -8.4660    -3.5060 c3         1 OHA      -0.076400
     10 C9          -0.4830    -7.1770    -3.2390 c3         1 OHA      -0.065400
     11 C8           0.7110    -7.4020    -2.2810 c3         1 OHA      -0.179400
     12 C7           1.4780    -6.0960    -2.0290 c          1 OHA       0.570100
     13 O1           2.3600    -5.7130    -2.7860 o          1 OHA      -0.523100
     14 C6           1.0850    -5.2910    -0.7810 c3         1 OHA      -0.184400
     15 C5           1.9950    -5.6390     0.4210 c3         1 OHA      -0.064400
     16 C4           1.6220    -4.8610     1.7020 c3         1 OHA      -0.076400
     17 C3           2.5290    -5.2050     2.9030 c3         1 OHA      -0.075400
     18 C2           2.1560    -4.4280     4.1840 c3         1 OHA      -0.075400
     19 C1           3.0600    -4.7710     5.3840 c3         1 OHA      -0.088100
     20 H151        -6.0600   -10.0240    -7.8520 hc         1 OHA       0.014200
     21 H152        -7.1390    -9.6440    -6.4150 hc         1 OHA       0.014200
     22 H141        -5.6640   -10.9960    -4.9970 hc         1 OHA       0.037700
     23 H142        -4.6280   -11.3610    -6.3750 hc         1 OHA       0.037700
     24 H131        -5.1500    -8.5490    -5.2570 hc         1 OHA       0.024200
     25 H132        -4.1130    -8.9140    -6.6370 hc         1 OHA       0.024200
     26 H121        -3.6630    -9.9280    -3.7750 hc         1 OHA       0.033200
     27 H122        -2.6260   -10.2930    -5.1540 hc         1 OHA       0.033200
     28 H111        -3.1490    -7.4830    -4.0360 hc         1 OHA       0.034700
     29 H112        -2.1120    -7.8480    -5.4150 hc         1 OHA       0.034700
     30 H101        -1.6620    -8.8630    -2.5530 hc         1 OHA       0.033700
     31 H102        -0.6240    -9.2270    -3.9320 hc         1 OHA       0.033700
     32 H91         -1.1490    -6.4160    -2.8140 hc         1 OHA       0.049700
     33 H92         -0.1110    -6.7800    -4.1920 hc         1 OHA       0.049700
     34 H81          1.3900    -8.1410    -2.7240 hc         1 OHA       0.057200
     35 H82          0.3060    -7.7740    -1.3330 hc         1 OHA       0.057200
     36 H61          0.0560    -5.5420    -0.4970 hc         1 OHA       0.057200
     37 H62          1.1730    -4.2200    -0.9980 hc         1 OHA       0.057200
     38 H51          3.0380    -5.4220     0.1580 hc         1 OHA       0.050700
     39 H52          1.9330    -6.7160     0.6230 hc         1 OHA       0.050700
     40 H41          1.6850    -3.7840     1.5000 hc         1 OHA       0.035200
     41 H42          0.5790    -5.0780     1.9640 hc         1 OHA       0.035200
     42 H31          2.4670    -6.2820     3.1050 hc         1 OHA       0.039200
     43 H32          3.5720    -4.9880     2.6410 hc         1 OHA       0.039200
     44 H21          2.2190    -3.3510     3.9880 hc         1 OHA       0.035700
     45 H22          1.1140    -4.6440     4.4510 hc         1 OHA       0.035700
     46 H11          2.7580    -4.1970     6.2670 hc         1 OHA       0.030367
     47 H12          4.1070    -4.5330     5.1610 hc         1 OHA       0.030367
     48 H13          2.9920    -5.8380     5.6280 hc         1 OHA       0.030367
@<TRIPOS>BOND
     1     1     2 1   
     2     2     3 1   
     3     2     4 1   
     4     4     5 1   
     5     4    20 1   
     6     4    21 1   
     7     5     6 1   
     8     5    22 1   
     9     5    23 1   
    10     6     7 1   
    11     6    24 1   
    12     6    25 1   
    13     7     8 1   
    14     7    26 1   
    15     7    27 1   
    16     8     9 1   
    17     8    28 1   
    18     8    29 1   
    19     9    10 1   
    20     9    30 1   
    21     9    31 1   
    22    10    11 1   
    23    10    32 1   
    24    10    33 1   
    25    11    12 1   
    26    11    34 1   
    27    11    35 1   
    28    12    13 2   
    29    12    14 1   
    30    14    15 1   
    31    14    36 1   
    32    14    37 1   
    33    15    16 1   
    34    15    38 1   
    35    15    39 1   
    36    16    17 1   
    37    16    40 1   
    38    16    41 1   
    39    17    18 1   
    40    17    42 1   
    41    17    43 1   
    42    18    19 1   
    43    18    44 1   
    44    18    45 1   
    45    19    46 1   
    46    19    47 1   
    47    19    48 1   
@<TRIPOS>SUBSTRUCTURE
     1 OHA         1 TEMP              0 ****  ****    0 ROOT
