@<TRIPOS>MOLECULE
OHA
   48    47     1     0     0
SMALL
bcc


@<TRIPOS>ATOM
      1 O2          -7.3120   -11.5090    -9.5690 o          1 OHA      -0.848800
      2 C16         -7.0250   -11.4350    -8.3550 c          1 OHA       0.927600
      3 O3          -7.6480   -11.9720    -7.4180 o          1 OHA      -0.848800
      4 C15         -5.7770   -10.6040    -8.0100 c3         1 OHA      -0.204400
      5 C14         -5.4750   -10.4240    -6.5310 c3         1 OHA      -0.054400
      6 C13         -4.2170    -9.6000    -6.2820 c3         1 OHA      -0.079400
      7 C12         -3.9030    -9.4070    -4.8040 c3         1 OHA      -0.075400
      8 C11         -2.6370    -8.5960    -4.5570 c3         1 OHA      -0.075400
      9 C10         -2.3420    -8.3770    -3.0790 c3         1 OHA      -0.076400
     10 C9          -1.0670    -7.5790    -2.8340 c3         1 OHA      -0.065400
     11 C8          -0.8190    -7.3420    -1.3540 c3         1 OHA      -0.179400
     12 C7           0.4440    -6.5910    -1.0160 c          1 OHA       0.570100
     13 O1           1.3230    -6.4040    -1.8270 o          1 OHA      -0.523100
     14 C6           0.5350    -6.0900     0.4030 c3         1 OHA      -0.184400
     15 C5           1.9190    -5.6590     0.8590 c3         1 OHA      -0.064400
     16 C4           1.9100    -5.1530     2.2970 c3         1 OHA      -0.076400
     17 C3           3.2870    -4.7350     2.7950 c3         1 OHA      -0.075400
     18 C2           3.2740    -4.2240     4.2310 c3         1 OHA      -0.075400
     19 C1           4.6540    -3.8100     4.7240 c3         1 OHA      -0.088100
     20 H151        -4.9150   -11.0690    -8.5050 hc         1 OHA       0.014200
     21 H152        -5.8760    -9.6220    -8.4880 hc         1 OHA       0.014200
     22 H141        -6.3250    -9.9420    -6.0370 hc         1 OHA       0.037700
     23 H142        -5.3660   -11.4020    -6.0540 hc         1 OHA       0.037700
     24 H131        -4.3220    -8.6180    -6.7590 hc         1 OHA       0.024200
     25 H132        -3.3640   -10.0820    -6.7730 hc         1 OHA       0.024200
     26 H121        -4.7500    -8.9160    -4.3140 hc         1 OHA       0.033200
     27 H122        -3.8030   -10.3870    -4.3240 hc         1 OHA       0.033200
     28 H111        -2.7260    -7.6240    -5.0560 hc         1 OHA       0.034700
     29 H112        -1.7860    -9.1000    -5.0280 hc         1 OHA       0.034700
     30 H101        -3.1890    -7.8620    -2.6130 hc         1 OHA       0.033700
     31 H102        -2.2640    -9.3470    -2.5760 hc         1 OHA       0.033700
     32 H91         -1.1330    -6.6190    -3.3550 hc         1 OHA       0.049700
     33 H92         -0.2170    -8.1080    -3.2730 hc         1 OHA       0.049700
     34 H81         -0.7620    -8.2980    -0.8180 hc         1 OHA       0.057200
     35 H82         -1.6650    -6.8190    -0.8950 hc         1 OHA       0.057200
     36 H61          0.1280    -6.8580     1.0700 hc         1 OHA       0.057200
     37 H62         -0.1690    -5.2530     0.4820 hc         1 OHA       0.057200
     38 H51          2.3040    -4.8750     0.2010 hc         1 OHA       0.050700
     39 H52          2.6130    -6.5000     0.7730 hc         1 OHA       0.050700
     40 H41          1.2220    -4.3050     2.3780 hc         1 OHA       0.035200
     41 H42          1.5080    -5.9320     2.9550 hc         1 OHA       0.035200
     42 H31          3.9740    -5.5840     2.7190 hc         1 OHA       0.039200
     43 H32          3.6920    -3.9580     2.1380 hc         1 OHA       0.039200
     44 H21          2.5880    -3.3740     4.3060 hc         1 OHA       0.035700
     45 H22          2.8670    -5.0000     4.8870 hc         1 OHA       0.035700
     46 H11          4.6220    -3.4460     5.7510 hc         1 OHA       0.030367
     47 H12          5.0690    -3.0130     4.1040 hc         1 OHA       0.030367
     48 H13          5.3520    -4.6480     4.6900 hc         1 OHA       0.030367
@<TRIPOS>BOND
     1     1     2 1   
     2     2     3 1   
     3     2     4 1   
     4     4     5 1   
     5     4    20 1   
     6     4    21 1   
     7     5     6 1   
     8     5    22 1   
     9     5    23 1   
    10     6     7 1   
    11     6    24 1   
    12     6    25 1   
    13     7     8 1   
    14     7    26 1   
    15     7    27 1   
    16     8     9 1   
    17     8    28 1   
    18     8    29 1   
    19     9    10 1   
    20     9    30 1   
    21     9    31 1   
    22    10    11 1   
    23    10    32 1   
    24    10    33 1   
    25    11    12 1   
    26    11    34 1   
    27    11    35 1   
    28    12    13 2   
    29    12    14 1   
    30    14    15 1   
    31    14    36 1   
    32    14    37 1   
    33    15    16 1   
    34    15    38 1   
    35    15    39 1   
    36    16    17 1   
    37    16    40 1   
    38    16    41 1   
    39    17    18 1   
    40    17    42 1   
    41    17    43 1   
    42    18    19 1   
    43    18    44 1   
    44    18    45 1   
    45    19    46 1   
    46    19    47 1   
    47    19    48 1   
@<TRIPOS>SUBSTRUCTURE
     1 OHA         1 TEMP              0 ****  ****    0 ROOT
