@<TRIPOS>MOLECULE
OHB
   17    17     1     0     0
SMALL
bcc


@<TRIPOS>ATOM
      1 O           -2.1920    -0.9360    -0.1350 o          1 OHB      -0.656100
      2 C           -1.6200     0.1660    -0.0960 c          1 OHB       0.700700
      3 N           -2.3210     1.2980    -0.0830 nt         1 OHB      -0.647000
      4 C1          -0.1390     0.2380    -0.0620 ca         1 OHB      -0.280600
      5 C6           0.5910    -0.9690    -0.0890 ca         1 OHB       0.227100
      6 O1           0.0030    -2.1620    -0.1440 oh         1 OHB      -0.514100
      7 C5           1.9880    -0.9280    -0.0570 ca         1 OHB      -0.194000
      8 C4           2.6510     0.2800     0.0010 ca         1 OHB      -0.057000
      9 C3           1.9430     1.4800     0.0300 ca         1 OHB      -0.191000
     10 C2           0.5640     1.4470    -0.0020 ca         1 OHB      -0.054000
     11 H1          -3.3270     1.2580    -0.1030 hn         1 OHB       0.321000
     12 H2          -1.9040     2.2110    -0.0580 hn         1 OHB       0.321000
     13 H3          -0.9750    -1.9910    -0.1520 ho         1 OHB       0.487000
     14 H4           2.5400    -1.8590    -0.0790 ha         1 OHB       0.151000
     15 H5           3.7330     0.2910     0.0250 ha         1 OHB       0.134000
     16 H6           2.4640     2.4260     0.0770 ha         1 OHB       0.136000
     17 H7           0.0350     2.3910     0.0240 ha         1 OHB       0.117000
@<TRIPOS>BOND
     1     1     2 2   
     2     2     3 1   
     3     2     4 1   
     4     3    11 1   
     5     3    12 1   
     6     4     5 ar  
     7     4    10 ar  
     8     5     6 1   
     9     5     7 ar  
    10     6    13 1   
    11     7     8 ar  
    12     7    14 1   
    13     8     9 ar  
    14     8    15 1   
    15     9    10 ar  
    16     9    16 1   
    17    10    17 1   
@<TRIPOS>SUBSTRUCTURE
     1 OHB         1 TEMP              0 ****  ****    0 ROOT
