@<TRIPOS>MOLECULE
OHB
   17    17     1     0     0
SMALL
No Charge or Current Charge


@<TRIPOS>ATOM
      1 O           -2.2620    -0.9020    -0.1500 o          1 OHB      -0.656100
      2 C           -1.6540     0.1560    -0.1000 c          1 OHB       0.633700
      3 N           -2.3440     1.3110    -0.0770 nt         1 OHB      -0.580000
      4 C1          -0.1470     0.2110    -0.0640 ca         1 OHB      -0.280600
      5 C6           0.6120    -0.9810    -0.0870 ca         1 OHB       0.227100
      6 O1          -0.0050    -2.1910    -0.1420 oh         1 OHB      -0.553100
      7 C5           2.0140    -0.9420    -0.0530 ca         1 OHB      -0.176000
      8 C4           2.6870     0.2870     0.0030 ca         1 OHB      -0.039000
      9 C3           1.9480     1.4790     0.0270 ca         1 OHB      -0.173000
     10 C2           0.5440     1.4470    -0.0070 ca         1 OHB      -0.036000
     11 H1          -3.3520     1.2790    -0.1010 hn         1 OHB       0.321000
     12 H2          -1.8590     2.1920    -0.0370 hn         1 OHB       0.321000
     13 H3          -0.9790    -1.9820    -0.1570 ho         1 OHB       0.526000
     14 H4           2.5810    -1.8690    -0.0720 ha         1 OHB       0.133000
     15 H5           3.7740     0.3160     0.0290 ha         1 OHB       0.116000
     16 H6           2.4670     2.4350     0.0710 ha         1 OHB       0.118000
     17 H7           0.0090     2.3940     0.0130 ha         1 OHB       0.099000
@<TRIPOS>BOND
     1     1     2 2   
     2     2     3 1   
     3     2     4 1   
     4     3    11 1   
     5     3    12 1   
     6     4     5 ar  
     7     4    10 ar  
     8     5     6 1   
     9     5     7 ar  
    10     6    13 1   
    11     7     8 ar  
    12     7    14 1   
    13     8     9 ar  
    14     8    15 1   
    15     9    10 ar  
    16     9    16 1   
    17    10    17 1   
@<TRIPOS>SUBSTRUCTURE
     1 OHB         1 TEMP              0 ****  ****    0 ROOT
