@<TRIPOS>MOLECULE
OHC
   41    42     1     0     0
SMALL
abcg2


@<TRIPOS>ATOM
      1 N1           7.8340    -1.0780    20.1750 ns         1 OHC      -0.169000
      2 C4          13.3350     1.0680    22.5210 ca         1 OHC      -0.087000
      3 C5          13.2070     0.2550    21.4050 ca         1 OHC       0.129000
      4 C6          12.0460    -0.4550    21.1420 ca         1 OHC      -0.088000
      5 C7          10.9720    -0.3450    22.0240 ca         1 OHC      -0.060300
      6 C8           9.6870    -1.0690    21.7340 c3         1 OHC      -0.108100
      7 C10          6.8630    -0.5940    19.2630 ca         1 OHC      -0.097000
      8 C13          4.9980     0.7320    18.6380 ca         1 OHC      -0.157000
      9 O1           8.8620     0.9030    20.5950 o          1 OHC      -0.557100
     10 C9           8.7770    -0.3030    20.7770 c          1 OHC       0.595100
     11 C14          5.9040     0.3570    19.6300 ca         1 OHC      -0.020300
     12 C12          5.0590     0.1560    17.3780 ca         1 OHC       0.328900
     13 N2           5.9610    -0.7710    17.0410 nb         1 OHC      -0.655000
     14 C11          6.8430    -1.1230    17.9740 ca         1 OHC       0.317900
     15 C16         11.0940     0.4690    23.1460 ca         1 OHC      -0.075000
     16 C3          12.2650     1.1750    23.4050 ca         1 OHC      -0.086300
     17 C2          12.3750     2.0200    24.6580 c3         1 OHC       0.156300
     18 N           13.1680     3.2240    24.4970 ns         1 OHC      -0.514900
     19 C1          12.7170     4.3010    23.8240 c          1 OHC       0.590100
     20 O           11.5850     4.3410    23.3360 o          1 OHC      -0.593100
     21 C           13.6800     5.4550    23.6910 c3         1 OHC      -0.175100
     22 H1           7.9360    -2.0790    20.2490 hn         1 OHC       0.151000
     23 H2          14.2520     1.6130    22.6960 ha         1 OHC       0.126000
     24 H3          11.9740    -1.0790    20.2610 ha         1 OHC       0.128000
     25 H4           9.1180    -1.2120    22.6570 hc         1 OHC       0.065200
     26 H5           9.8840    -2.0610    21.3260 hc         1 OHC       0.065200
     27 H6           4.2300     1.4620    18.8590 ha         1 OHC       0.124000
     28 H7           6.0440     0.1710    21.7620 hc         1 OHC       0.055367
     29 H8           6.5460     1.7320    21.1360 hc         1 OHC       0.055367
     30 H9           4.8220     1.3300    21.1950 hc         1 OHC       0.055367
     31 H10          4.3490     0.4450    16.6110 h4         1 OHC       0.021100
     32 H11          7.5820    -1.8710    17.7020 h4         1 OHC       0.017100
     33 H12         10.2550     0.5620    23.8270 ha         1 OHC       0.118000
     34 H13         11.3740     2.2910    24.9940 h1         1 OHC       0.060200
     35 H14         12.8400     1.4340    25.4530 h1         1 OHC       0.060200
     36 H15         14.1080     3.2340    24.8590 hn         1 OHC       0.313500
     37 H16         13.1790     6.3730    23.9990 hc         1 OHC       0.061033
     38 H17         14.5870     5.3210    24.2780 hc         1 OHC       0.061033
     39 H18         13.9510     5.5600    22.6390 hc         1 OHC       0.061033
     40 C15          5.8170     0.9280    21.0100 c3         1 OHC      -0.054800
     41 CL          14.5570     0.1200    20.2910 cl         1 OHC      -0.216000
@<TRIPOS>BOND
     1     1     7 1   
     2     1    10 1   
     3     1    22 1   
     4     2     3 ar  
     5     2    16 ar  
     6     2    23 1   
     7     3     4 ar  
     8     3    41 1   
     9     4     5 ar  
    10     4    24 1   
    11     5     6 1   
    12     5    15 ar  
    13     6    10 1   
    14     6    25 1   
    15     6    26 1   
    16     7    11 ar  
    17     7    14 ar  
    18     8    11 ar  
    19     8    12 ar  
    20     8    27 1   
    21     9    10 2   
    22    11    40 1   
    23    12    13 ar  
    24    12    31 1   
    25    13    14 ar  
    26    14    32 1   
    27    15    16 ar  
    28    15    33 1   
    29    16    17 1   
    30    17    18 1   
    31    17    34 1   
    32    17    35 1   
    33    18    19 1   
    34    18    36 1   
    35    19    20 2   
    36    19    21 1   
    37    21    37 1   
    38    21    38 1   
    39    21    39 1   
    40    28    40 1   
    41    29    40 1   
    42    30    40 1   
@<TRIPOS>SUBSTRUCTURE
     1 OHC         1 TEMP              0 ****  ****    0 ROOT
