@<TRIPOS>MOLECULE
OHC
   41    42     1     0     0
SMALL
No Charge or Current Charge


@<TRIPOS>ATOM
      1 N1           8.1590    -0.5150    20.4780 ns         1 OHC      -0.169000
      2 C4          13.5630     0.1240    22.3320 ca         1 OHC      -0.087000
      3 C5          13.0030    -0.8680    21.5120 ca         1 OHC       0.129000
      4 C6          11.6360    -1.1750    21.6060 ca         1 OHC      -0.088000
      5 C7          10.8180    -0.4890    22.5240 ca         1 OHC      -0.060300
      6 C8           9.3300    -0.8110    22.6210 c3         1 OHC      -0.108100
      7 C10          7.3860    -0.0100    19.3960 ca         1 OHC      -0.097000
      8 C13          5.4450     1.0310    18.4040 ca         1 OHC      -0.157000
      9 O1           8.2570     1.2490    21.9510 o          1 OHC      -0.557100
     10 C9           8.5220     0.0850    21.6750 c          1 OHC       0.595100
     11 C14          6.1010     0.5670    19.5590 ca         1 OHC      -0.020300
     12 C12          6.0610     0.8980    17.1500 ca         1 OHC       0.328900
     13 N2           7.2740     0.3270    16.9850 nb         1 OHC      -0.655000
     14 C11          7.9120    -0.1200    18.0910 ca         1 OHC       0.317900
     15 C16         11.3840     0.5060    23.3450 ca         1 OHC      -0.075000
     16 C3          12.7550     0.8160    23.2560 ca         1 OHC      -0.086300
     17 C2          13.3540     1.8980    24.1420 c3         1 OHC       0.156300
     18 N           13.1640     3.2280    23.5620 ns         1 OHC      -0.514900
     19 C1          12.1540     4.0960    23.9050 c          1 OHC       0.590100
     20 O           11.3210     3.8360    24.7610 o          1 OHC      -0.593100
     21 C           12.1530     5.4090    23.1340 c3         1 OHC      -0.175100
     22 H1           8.5090    -1.4560    20.3470 hn         1 OHC       0.151000
     23 H2          14.6220     0.3550    22.2480 ha         1 OHC       0.126000
     24 H3          11.2170    -1.9450    20.9620 ha         1 OHC       0.128000
     25 H4           8.9840    -0.6410    23.6470 hc         1 OHC       0.065200
     26 H5           9.1730    -1.8640    22.3570 hc         1 OHC       0.065200
     27 H6           4.4600     1.4830    18.4680 ha         1 OHC       0.124000
     28 H7           5.6460    -0.1780    21.5640 hc         1 OHC       0.055367
     29 H8           5.6380     1.5930    21.4210 hc         1 OHC       0.055367
     30 H9           4.2990     0.6390    20.7780 hc         1 OHC       0.055367
     31 H10          5.5630     1.2500    16.2470 h4         1 OHC       0.021100
     32 H11          8.8890    -0.5720    17.9270 h4         1 OHC       0.017100
     33 H12         10.7560     1.0450    24.0520 ha         1 OHC       0.118000
     34 H13         12.8990     1.8560    25.1410 h1         1 OHC       0.060200
     35 H14         14.4310     1.7210    24.2660 h1         1 OHC       0.060200
     36 H15         13.8030     3.5340    22.8380 hn         1 OHC       0.313500
     37 H16         11.3370     6.0750    23.4350 hc         1 OHC       0.061033
     38 H17         13.1310     5.8900    23.2470 hc         1 OHC       0.061033
     39 H18         12.1230     5.1920    22.0600 hc         1 OHC       0.061033
     40 C15          5.3880     0.6590    20.9050 c3         1 OHC      -0.054800
     41 Cl          14.0170    -1.7270    20.3590 cl         1 OHC      -0.216000
@<TRIPOS>BOND
     1     1     7 1   
     2     1    10 1   
     3     1    22 1   
     4     2     3 ar  
     5     2    16 ar  
     6     2    23 1   
     7     3     4 ar  
     8     3    41 1   
     9     4     5 ar  
    10     4    24 1   
    11     5     6 1   
    12     5    15 ar  
    13     6    10 1   
    14     6    25 1   
    15     6    26 1   
    16     7    11 ar  
    17     7    14 ar  
    18     8    11 ar  
    19     8    12 ar  
    20     8    27 1   
    21     9    10 2   
    22    11    40 1   
    23    12    13 ar  
    24    12    31 1   
    25    13    14 ar  
    26    14    32 1   
    27    15    16 ar  
    28    15    33 1   
    29    16    17 1   
    30    17    18 1   
    31    17    34 1   
    32    17    35 1   
    33    18    19 1   
    34    18    36 1   
    35    19    20 2   
    36    19    21 1   
    37    21    37 1   
    38    21    38 1   
    39    21    39 1   
    40    28    40 1   
    41    29    40 1   
    42    30    40 1   
@<TRIPOS>SUBSTRUCTURE
     1 OHC         1 TEMP              0 ****  ****    0 ROOT
