@<TRIPOS>MOLECULE
OHD
   35    36     1     0     0
SMALL
bcc


@<TRIPOS>ATOM
      1 N1          -1.1070     3.0870     1.2160 n8         1 OHD      -0.884800
      2 CA1         -2.1420     2.2130     0.7050 c3         1 OHD       0.141200
      3 CB1         -2.6300     2.7280    -0.6500 c3         1 OHD      -0.089100
      4 C1          -1.7000     0.7800     0.5710 cc         1 OHD       0.464900
      5 N2          -0.4640     0.4380     0.4230 nd         1 OHD      -0.693300
      6 N3          -2.5750    -0.2810     0.5990 n          1 OHD      -0.367300
      7 C2          -1.8500    -1.4350     0.4090 c          1 OHD       0.683700
      8 O2          -2.2980    -2.5620     0.3620 o          1 OHD      -0.570500
      9 CA2         -0.4540    -0.9450     0.3130 cd         1 OHD       0.043400
     10 CA3         -4.0160    -0.2690     0.5870 c3         1 OHD      -0.055000
     11 C3          -4.6170    -0.4950    -0.8210 c          1 OHD       0.924600
     12 O3          -3.8320    -0.4820    -1.7820 o          1 OHD      -0.818800
     13 CB2          0.6050    -1.7600     0.1520 ce         1 OHD      -0.065200
     14 CG2          2.0090    -1.4170     0.0510 ca         1 OHD      -0.061800
     15 CD1          2.9410    -2.4500    -0.1160 ca         1 OHD      -0.085000
     16 CD2          2.4900    -0.1040     0.1110 ca         1 OHD      -0.049000
     17 CE1          4.2930    -2.1950    -0.2210 ca         1 OHD      -0.174000
     18 CE2          3.8420     0.1430     0.0060 ca         1 OHD      -0.078600
     19 CZ           4.7730    -0.8880    -0.1610 ca         1 OHD       0.143100
     20 OH           6.0880    -0.6880    -0.2650 oh         1 OHD      -0.497100
     21 CL           4.4260     1.7770     0.0780 cl         1 OHD      -0.136400
     22 O1          -5.8510    -0.6510    -0.8340 o          1 OHD      -0.818800
     23 H1          -0.7910     2.7560     2.1190 hn         1 OHD       0.345300
     24 H2          -0.2970     3.0440     0.6080 hn         1 OHD       0.345300
     25 H4          -2.9780     2.2460     1.4090 h1         1 OHD       0.071700
     26 H5          -1.8120     2.7290    -1.3720 hc         1 OHD       0.054033
     27 H6          -3.4280     2.1130    -1.0590 hc         1 OHD       0.054033
     28 H7          -2.9970     3.7480    -0.5430 hc         1 OHD       0.054033
     29 H9          -4.3800    -1.0360     1.2720 h1         1 OHD       0.043200
     30 H10         -4.3700     0.6850     0.9820 h1         1 OHD       0.043200
     31 H11          0.3790    -2.8200     0.0910 ha         1 OHD       0.138000
     32 H13          2.5960    -3.4750    -0.1670 ha         1 OHD       0.135000
     33 H14          1.8010     0.7190     0.2380 ha         1 OHD       0.185000
     34 H15          4.9970    -3.0070    -0.3500 ha         1 OHD       0.141000
     35 H16          6.3050     0.2530    -0.2210 ho         1 OHD       0.435000
@<TRIPOS>BOND
     1     1     2 1   
     2     1    23 1   
     3     1    24 1   
     4     2     3 1   
     5     2     4 1   
     6     2    25 1   
     7     3    26 1   
     8     3    27 1   
     9     3    28 1   
    10     4     5 2   
    11     4     6 1   
    12     5     9 1   
    13     6     7 1   
    14     6    10 1   
    15     7     8 2   
    16     7     9 1   
    17     9    13 2   
    18    10    11 1   
    19    10    29 1   
    20    10    30 1   
    21    11    12 1   
    22    11    22 1   
    23    13    14 1   
    24    13    31 1   
    25    14    15 ar  
    26    14    16 ar  
    27    15    17 ar  
    28    15    32 1   
    29    16    18 ar  
    30    16    33 1   
    31    17    19 ar  
    32    17    34 1   
    33    18    19 ar  
    34    18    21 1   
    35    19    20 1   
    36    20    35 1   
@<TRIPOS>SUBSTRUCTURE
     1 OHD         1 TEMP              0 ****  ****    0 ROOT
