@<TRIPOS>MOLECULE
OHD
   35    36     1     0     0
SMALL
No Charge or Current Charge


@<TRIPOS>ATOM
      1 N1          -1.0730     3.2530     0.9660 n8         1 OHD      -0.995200
      2 CA1         -2.1250     2.3050     0.4760 c3         1 OHD       0.141200
      3 CB1         -2.6230     2.7830    -0.9040 c3         1 OHD      -0.089100
      4 C1          -1.6910     0.8250     0.4530 cc         1 OHD       0.464900
      5 N2          -0.4050     0.4520     0.3380 nd         1 OHD      -0.693300
      6 N3          -2.5780    -0.2390     0.5590 n          1 OHD      -0.300300
      7 C2          -1.8870    -1.4260     0.5080 c          1 OHD       0.541200
      8 O2          -2.3280    -2.5670     0.5650 o          1 OHD      -0.495000
      9 CA2         -0.4990    -0.9370     0.3730 cd         1 OHD       0.043400
     10 CA3         -4.0650    -0.1810     0.6480 c3         1 OHD      -0.055000
     11 C3          -4.8070    -0.8160    -0.5520 c          1 OHD       0.714000
     12 O3          -4.4370    -0.5280    -1.6810 o          1 OHD      -0.713500
     13 CB2          0.6080    -1.7570     0.2650 ce         1 OHD      -0.115200
     14 CG2          2.0600    -1.4320     0.1130 ca         1 OHD      -0.061800
     15 CD1          2.8940    -2.3360    -0.5750 ca         1 OHD      -0.067000
     16 CD2          2.6260    -0.2630     0.6650 ca         1 OHD      -0.031000
     17 CE1          4.2660    -2.0690    -0.7270 ca         1 OHD      -0.156000
     18 CE2          3.9980     0.0050     0.5140 ca         1 OHD       0.013000
     19 CZ           4.8200    -0.9000    -0.1870 ca         1 OHD       0.143100
     20 OH           6.1540    -0.6530    -0.3400 oh         1 OHD      -0.536100
     21 Cl           4.6770     1.4750     1.2150 cl         1 OHD      -0.228000
     22 O1          -5.7300    -1.5840    -0.3190 o          1 OHD      -0.713500
     23 H1          -0.8010     2.9770     1.9170 hn         1 OHD       0.400500
     24 H2          -0.2160     3.0660     0.4310 hn         1 OHD       0.400500
     25 H4          -2.9690     2.3890     1.1750 h1         1 OHD       0.071700
     26 H5          -1.8250     2.7090    -1.6540 hc         1 OHD       0.054033
     27 H6          -3.4660     2.1710    -1.2440 hc         1 OHD       0.054033
     28 H7          -2.9610     3.8250    -0.8580 hc         1 OHD       0.054033
     29 H9          -4.3770    -0.7020     1.5610 h1         1 OHD       0.043200
     30 H10         -4.4030     0.8580     0.7280 h1         1 OHD       0.043200
     31 H11          0.3800    -2.8230     0.2490 ha         1 OHD       0.188000
     32 H13          2.4770    -3.2470    -1.0000 ha         1 OHD       0.117000
     33 H14          2.0110     0.4370     1.2240 ha         1 OHD       0.167000
     34 H15          4.8990    -2.7710    -1.2650 ha         1 OHD       0.123000
     35 H16          6.3510     0.2010     0.1040 ho         1 OHD       0.474000
@<TRIPOS>BOND
     1     1     2 1   
     2     1    23 1   
     3     1    24 1   
     4     2     3 1   
     5     2     4 1   
     6     2    25 1   
     7     3    26 1   
     8     3    27 1   
     9     3    28 1   
    10     4     5 2   
    11     4     6 1   
    12     5     9 1   
    13     6     7 1   
    14     6    10 1   
    15     7     8 2   
    16     7     9 1   
    17     9    13 2   
    18    10    11 1   
    19    10    29 1   
    20    10    30 1   
    21    11    12 1   
    22    11    22 1   
    23    13    14 1   
    24    13    31 1   
    25    14    15 ar  
    26    14    16 ar  
    27    15    17 ar  
    28    15    32 1   
    29    16    18 ar  
    30    16    33 1   
    31    17    19 ar  
    32    17    34 1   
    33    18    19 ar  
    34    18    21 1   
    35    19    20 1   
    36    20    35 1   
@<TRIPOS>SUBSTRUCTURE
     1 OHD         1 TEMP              0 ****  ****    0 ROOT
