@<TRIPOS>MOLECULE
OHE
    9     8     1     0     0
SMALL
No Charge or Current Charge


@<TRIPOS>ATOM
      1 C1           1.2650    -0.2380     0.0190 c3         1 OHE      -0.094100
      2 C2          -0.0240     0.6010    -0.0030 c3         1 OHE       0.162600
      3 O           -1.1620    -0.2650    -0.0270 oh         1 OHE      -0.663000
      4 H11          1.2950    -0.8790     0.9080 hc         1 OHE       0.042033
      5 H12          1.3290    -0.8740    -0.8720 hc         1 OHE       0.042033
      6 H13          2.1430     0.4170     0.0380 hc         1 OHE       0.042033
      7 H21         -0.0510     1.2440     0.8870 h1         1 OHE       0.014700
      8 H22         -0.0180     1.2480    -0.8900 h1         1 OHE       0.014700
      9 HO          -1.9580     0.3120    -0.0410 ho         1 OHE       0.439000
@<TRIPOS>BOND
     1     1     2 1   
     2     1     4 1   
     3     1     5 1   
     4     1     6 1   
     5     2     3 1   
     6     2     7 1   
     7     2     8 1   
     8     3     9 1   
@<TRIPOS>SUBSTRUCTURE
     1 OHE         1 TEMP              0 ****  ****    0 ROOT
