@<TRIPOS>MOLECULE
OHE
    9     8     1     0     0
SMALL
abcg2


@<TRIPOS>ATOM
      1 C1           1.2420    -0.2350     0.0190 c3         1 OHE      -0.094100
      2 C2          -0.0190     0.6010    -0.0040 c3         1 OHE       0.162600
      3 O           -1.1390    -0.2620    -0.0300 oh         1 OHE      -0.663000
      4 H11          1.2780    -0.8740     0.9030 hc         1 OHE       0.042033
      5 H12          1.3140    -0.8690    -0.8670 hc         1 OHE       0.042033
      6 H13          2.1190     0.4110     0.0380 hc         1 OHE       0.042033
      7 H21         -0.0390     1.2540     0.8770 h1         1 OHE       0.014700
      8 H22         -0.0030     1.2590    -0.8820 h1         1 OHE       0.014700
      9 HO          -1.9330     0.2790    -0.0350 ho         1 OHE       0.439000
@<TRIPOS>BOND
     1     1     2 1   
     2     1     4 1   
     3     1     5 1   
     4     1     6 1   
     5     2     3 1   
     6     2     7 1   
     7     2     8 1   
     8     3     9 1   
@<TRIPOS>SUBSTRUCTURE
     1 OHE         1 TEMP              0 ****  ****    0 ROOT
