@<TRIPOS>MOLECULE
OHF
   50    52     1     0     0
SMALL
No Charge or Current Charge


@<TRIPOS>ATOM
      1 C02        -28.8300   -14.9850    21.7680 c          1 OHF       0.622700
      2 N03        -28.7910   -14.5160    23.1000 n          1 OHF      -0.385800
      3 C04        -28.6930   -13.0450    23.4320 c6         1 OHF       0.078700
      4 C07        -24.9150   -12.9310    23.5460 ca         1 OHF       0.239100
      5 C09        -23.1380   -11.5690    22.5630 ca         1 OHF       0.004000
      6 C10        -22.1800   -12.4170    23.1300 ca         1 OHF      -0.267000
      7 C11        -22.5800   -13.5150    23.9010 ca         1 OHF       0.218100
      8 C13        -23.9430   -13.7820    24.1220 ca         1 OHF      -0.274600
      9 C14        -24.3200   -14.9770    24.9550 c          1 OHF       0.602500
     10 C18        -28.8830   -14.9250    25.6500 c6         1 OHF       0.130600
     11 C19        -28.6800   -15.5000    24.2280 c6         1 OHF       0.047000
     12 C20        -29.0820   -14.0040    20.6690 ca         1 OHF      -0.189600
     13 C22        -28.3040   -12.8360    18.7040 ca         1 OHF      -0.177000
     14 C23        -29.5860   -12.2860    18.5780 ca         1 OHF       0.354900
     15 C27        -32.4940   -12.5770    21.6830 c3         1 OHF       0.170600
     16 C05        -27.2960   -12.4490    23.0790 c3         1 OHF       0.147600
     17 C08        -24.4990   -11.8260    22.7680 ca         1 OHF      -0.266000
     18 C16        -29.0490   -12.6740    24.9080 c6         1 OHF       0.150600
     19 C21        -28.0460   -13.7230    19.7570 ca         1 OHF      -0.050000
     20 C25        -30.3530   -13.4130    20.4690 ca         1 OHF       0.401300
     21 N24        -30.5950   -12.5790    19.4270 nb         1 OHF      -0.683000
     22 O01        -28.6920   -16.1730    21.5100 o          1 OHF      -0.589100
     23 O06        -26.2560   -13.2060    23.7270 os         1 OHF      -0.312100
     24 O12        -21.6210   -14.3110    24.4450 oh         1 OHF      -0.530100
     25 O15        -25.3850   -15.1040    25.5500 o          1 OHF      -0.532100
     26 O17        -29.7090   -13.7530    25.5940 os         1 OHF      -0.442000
     27 O28        -31.8140   -11.6780    22.5660 oh         1 OHF      -0.671000
     28 H041       -29.4160   -12.5060    22.8090 h1         1 OHF       0.093700
     29 H091       -22.8260   -10.7150    21.9630 ha         1 OHF       0.114000
     30 H101       -21.1250   -12.2120    22.9650 ha         1 OHF       0.120000
     31 H141       -23.5480   -15.7720    25.0460 h4         1 OHF       0.001200
     32 H181       -29.3570   -15.6770    26.2960 h1         1 OHF       0.051200
     33 H182       -27.9140   -14.6590    26.0950 h1         1 OHF       0.051200
     34 H191       -29.4330   -16.2860    24.0750 h1         1 OHF       0.087200
     35 H192       -27.6990   -15.9940    24.1820 h1         1 OHF       0.087200
     36 H221       -27.5290   -12.5830    17.9860 ha         1 OHF       0.126000
     37 H231       -29.8200   -11.6020    17.7630 h4         1 OHF       0.019100
     38 H262       -32.1820   -14.4940    20.7620 hc         1 OHF       0.070200
     39 H261       -31.3010   -14.2700    22.2490 hc         1 OHF       0.070200
     40 H271       -32.8180   -12.0550    20.7720 h1         1 OHF       0.029200
     41 H272       -33.3960   -12.9670    22.1730 h1         1 OHF       0.029200
     42 H051       -27.2670   -11.3970    23.3920 h1         1 OHF       0.045200
     43 H052       -27.1630   -12.4810    21.9910 h1         1 OHF       0.045200
     44 H081       -25.2170   -11.1520    22.3120 ha         1 OHF       0.124000
     45 H162       -28.1400   -12.4120    25.4700 h1         1 OHF       0.061200
     46 H161       -29.7030   -11.7910    24.9180 h1         1 OHF       0.061200
     47 H211       -27.0630   -14.1790    19.8690 ha         1 OHF       0.126000
     48 H121       -20.7460   -13.9550    24.1820 ho         1 OHF       0.476000
     49 H281       -32.4350   -10.9390    22.7520 ho         1 OHF       0.443000
     50 C26        -31.5790   -13.7670    21.3180 c3         1 OHF      -0.133700
@<TRIPOS>BOND
     1     1     2 1   
     2     1    12 1   
     3     1    22 2   
     4     2     3 1   
     5     2    11 1   
     6     3    16 1   
     7     3    18 1   
     8     3    28 1   
     9     4     8 ar  
    10     4    17 ar  
    11     4    23 1   
    12     5     6 ar  
    13     5    17 ar  
    14     5    29 1   
    15     6     7 ar  
    16     6    30 1   
    17     7     8 ar  
    18     7    24 1   
    19     8     9 1   
    20     9    25 2   
    21     9    31 1   
    22    10    11 1   
    23    10    26 1   
    24    10    32 1   
    25    10    33 1   
    26    11    34 1   
    27    11    35 1   
    28    12    19 ar  
    29    12    20 ar  
    30    13    14 ar  
    31    13    19 ar  
    32    13    36 1   
    33    14    21 ar  
    34    14    37 1   
    35    15    27 1   
    36    15    40 1   
    37    15    41 1   
    38    15    50 1   
    39    16    23 1   
    40    16    42 1   
    41    16    43 1   
    42    17    44 1   
    43    18    26 1   
    44    18    45 1   
    45    18    46 1   
    46    19    47 1   
    47    20    21 ar  
    48    20    50 1   
    49    24    48 1   
    50    27    49 1   
    51    38    50 1   
    52    39    50 1   
@<TRIPOS>SUBSTRUCTURE
     1 OHF         1 TEMP              0 ****  ****    0 ROOT
