@<TRIPOS>MOLECULE
OHF
   50    52     1     0     0
SMALL
abcg2


@<TRIPOS>ATOM
      1 C02        -29.0690   -15.0150    21.8220 c          1 OHF       0.622700
      2 N03        -28.5850   -14.5670    22.9970 n          1 OHF      -0.385800
      3 C04        -28.4340   -13.1530    23.3290 c6         1 OHF       0.078700
      4 C07        -24.7870   -12.9280    23.4790 ca         1 OHF       0.239100
      5 C09        -23.0590   -11.6760    22.3800 ca         1 OHF       0.004000
      6 C10        -22.0780   -12.3240    23.1020 ca         1 OHF      -0.267000
      7 C11        -22.4520   -13.2830    24.0370 ca         1 OHF       0.218100
      8 C13        -23.8090   -13.6030    24.2520 ca         1 OHF      -0.274600
      9 C14        -24.1280   -14.5980    25.2790 c          1 OHF       0.602500
     10 C18        -29.5560   -15.1580    25.1390 c6         1 OHF       0.130600
     11 C19        -28.4510   -15.4680    24.1280 c6         1 OHF       0.047000
     12 C20        -29.3030   -14.0020    20.7390 ca         1 OHF      -0.189600
     13 C22        -28.5440   -12.8880    18.7630 ca         1 OHF      -0.177000
     14 C23        -29.8190   -12.3560    18.6490 ca         1 OHF       0.354900
     15 C27        -32.4300   -12.4210    21.9100 c3         1 OHF       0.170600
     16 C05        -27.0760   -12.5810    22.9690 c3         1 OHF       0.147600
     17 C08        -24.4060   -11.9620    22.5530 ca         1 OHF      -0.266000
     18 C16        -28.7880   -12.9650    24.8120 c6         1 OHF       0.150600
     19 C21        -28.2900   -13.7330    19.8280 ca         1 OHF      -0.050000
     20 C25        -30.5590   -13.4210    20.5400 ca         1 OHF       0.401300
     21 N24        -30.7940   -12.6180    19.5070 nb         1 OHF      -0.683000
     22 O01        -29.2970   -16.1920    21.5880 o          1 OHF      -0.589100
     23 O06        -26.0620   -13.2650    23.6830 os         1 OHF      -0.312100
     24 O12        -21.5350   -13.9320    24.7660 oh         1 OHF      -0.530100
     25 O15        -25.2320   -14.9680    25.6210 o          1 OHF      -0.532100
     26 O17        -29.8800   -13.7790    25.1490 os         1 OHF      -0.442000
     27 O28        -31.5150   -11.6270    22.6320 oh         1 OHF      -0.671000
     28 H041       -29.1560   -12.5750    22.7500 h1         1 OHF       0.093700
     29 H091       -22.7740   -10.9250    21.6550 ha         1 OHF       0.114000
     30 H101       -21.0320   -12.0870    22.9480 ha         1 OHF       0.120000
     31 H141       -23.2460   -15.0260    25.7780 h4         1 OHF       0.001200
     32 H181       -30.4710   -15.6910    24.8750 h1         1 OHF       0.051200
     33 H182       -29.2410   -15.4950    26.1340 h1         1 OHF       0.051200
     34 H191       -28.5270   -16.4980    23.7930 h1         1 OHF       0.087200
     35 H192       -27.4620   -15.3420    24.5650 h1         1 OHF       0.087200
     36 H221       -27.7800   -12.6510    18.0360 ha         1 OHF       0.126000
     37 H231       -30.0640   -11.6940    17.8260 h4         1 OHF       0.019100
     38 H262       -32.4490   -14.3120    20.9370 hc         1 OHF       0.070200
     39 H261       -31.4100   -14.2520    22.3390 hc         1 OHF       0.070200
     40 H271       -32.8210   -11.8910    21.0360 h1         1 OHF       0.029200
     41 H272       -33.2910   -12.7070    22.5270 h1         1 OHF       0.029200
     42 H051       -27.0660   -11.5130    23.2140 h1         1 OHF       0.045200
     43 H052       -26.9190   -12.6750    21.8910 h1         1 OHF       0.045200
     44 H081       -25.1320   -11.4270    21.9600 ha         1 OHF       0.124000
     45 H162       -27.9250   -13.1570    25.4630 h1         1 OHF       0.061200
     46 H161       -29.0850   -11.9280    24.9730 h1         1 OHF       0.061200
     47 H211       -27.3110   -14.1810    19.9500 ha         1 OHF       0.126000
     48 H121       -20.6460   -13.6270    24.5450 ho         1 OHF       0.476000
     49 H281       -31.9420   -10.7970    22.8610 ho         1 OHF       0.443000
     50 C26        -31.7220   -13.6850    21.4600 c3         1 OHF      -0.133700
@<TRIPOS>BOND
     1     1     2 1   
     2     1    12 1   
     3     1    22 2   
     4     2     3 1   
     5     2    11 1   
     6     3    16 1   
     7     3    18 1   
     8     3    28 1   
     9     4     8 ar  
    10     4    17 ar  
    11     4    23 1   
    12     5     6 ar  
    13     5    17 ar  
    14     5    29 1   
    15     6     7 ar  
    16     6    30 1   
    17     7     8 ar  
    18     7    24 1   
    19     8     9 1   
    20     9    25 2   
    21     9    31 1   
    22    10    11 1   
    23    10    26 1   
    24    10    32 1   
    25    10    33 1   
    26    11    34 1   
    27    11    35 1   
    28    12    19 ar  
    29    12    20 ar  
    30    13    14 ar  
    31    13    19 ar  
    32    13    36 1   
    33    14    21 ar  
    34    14    37 1   
    35    15    27 1   
    36    15    40 1   
    37    15    41 1   
    38    15    50 1   
    39    16    23 1   
    40    16    42 1   
    41    16    43 1   
    42    17    44 1   
    43    18    26 1   
    44    18    45 1   
    45    18    46 1   
    46    19    47 1   
    47    20    21 ar  
    48    20    50 1   
    49    24    48 1   
    50    27    49 1   
    51    38    50 1   
    52    39    50 1   
@<TRIPOS>SUBSTRUCTURE
     1 OHF         1 TEMP              0 ****  ****    0 ROOT
