@<TRIPOS>MOLECULE
OHG
   16    16     1     0     0
SMALL
No Charge or Current Charge


@<TRIPOS>ATOM
      1 CAA          2.9660     0.5160    -0.2800 c3         1 OHG      -0.121400
      2 CAB          1.5380     0.1240    -0.0470 cc         1 OHG       0.403800
      3 NAC          0.4970     0.9310    -0.1630 nd         1 OHG      -0.681000
      4 NAF          1.1360    -1.1350     0.3210 na         1 OHG      -0.306500
      5 CAE         -0.2390    -1.1220     0.4430 cc         1 OHG      -0.194000
      6 CAD         -0.6160     0.1620     0.1380 cd         1 OHG       0.234300
      7 CAG         -2.0280     0.7250     0.1230 c3         1 OHG       0.144300
      8 OAH         -2.8180     0.2050    -0.9650 oh         1 OHG      -0.667000
      9 H1           3.5610     0.3650     0.6270 hc         1 OHG       0.053367
     10 H2           3.4070    -0.0860    -1.0830 hc         1 OHG       0.053367
     11 H3           3.0460     1.5710    -0.5660 hc         1 OHG       0.053367
     12 H5           1.7560    -1.9230     0.4710 hn         1 OHG       0.349000
     13 H6          -0.8300    -1.9870     0.7230 h4         1 OHG       0.167000
     14 H7          -2.5040     0.4830     1.0830 h1         1 OHG       0.033700
     15 H8          -1.9720     1.8200     0.0570 h1         1 OHG       0.033700
     16 H9          -3.7020     0.6330    -0.9080 ho         1 OHG       0.445000
@<TRIPOS>BOND
     1     1     2 1   
     2     1     9 1   
     3     1    10 1   
     4     1    11 1   
     5     2     3 2   
     6     2     4 1   
     7     3     6 1   
     8     4     5 1   
     9     4    12 1   
    10     5     6 2   
    11     5    13 1   
    12     6     7 1   
    13     7     8 1   
    14     7    14 1   
    15     7    15 1   
    16     8    16 1   
@<TRIPOS>SUBSTRUCTURE
     1 OHG         1 TEMP              0 ****  ****    0 ROOT
