@<TRIPOS>MOLECULE
OHG
   16    16     1     0     0
SMALL
bcc


@<TRIPOS>ATOM
      1 CAA          2.9690     0.5080    -0.0210 c3         1 OHG      -0.121400
      2 CAB          1.5280     0.1420     0.0010 cc         1 OHG       0.403800
      3 NAC          0.5180     0.9780    -0.0540 nd         1 OHG      -0.681000
      4 NAF          1.0880    -1.1310     0.0770 na         1 OHG      -0.306900
      5 CAE         -0.2820    -1.1090     0.0700 cc         1 OHG      -0.226600
      6 CAD         -0.6140     0.2110    -0.0110 cd         1 OHG       0.299600
      7 CAG         -1.9680     0.8320    -0.0510 c3         1 OHG       0.121100
      8 OAH         -2.9330    -0.1920    -0.0390 oh         1 OHG      -0.604800
      9 H1           3.4910     0.1400     0.8640 hc         1 OHG       0.053367
     10 H2           3.4760     0.0960    -0.8950 hc         1 OHG       0.053367
     11 H3           3.0700     1.5900    -0.0500 hc         1 OHG       0.053367
     12 H5           1.6620    -1.9560     0.1320 hn         1 OHG       0.298700
     13 H6          -0.8690    -2.0100     0.1260 h4         1 OHG       0.185000
     14 H7          -2.0830     1.5070     0.8080 h1         1 OHG       0.033700
     15 H8          -2.0520     1.4620    -0.9470 h1         1 OHG       0.033700
     16 H9          -3.8030     0.2160    -0.0360 ho         1 OHG       0.406000
@<TRIPOS>BOND
     1     1     2 1   
     2     1     9 1   
     3     1    10 1   
     4     1    11 1   
     5     2     3 2   
     6     2     4 1   
     7     3     6 1   
     8     4     5 1   
     9     4    12 1   
    10     5     6 2   
    11     5    13 1   
    12     6     7 1   
    13     7     8 1   
    14     7    14 1   
    15     7    15 1   
    16     8    16 1   
@<TRIPOS>SUBSTRUCTURE
     1 OHG         1 TEMP              0 ****  ****    0 ROOT
