@<TRIPOS>MOLECULE
OHH
   82    88     1     0     0
SMALL
No Charge or Current Charge


@<TRIPOS>ATOM
      1 O6          -1.9260     2.2650     5.0870 o          1 OHH      -0.578100
      2 P1          -0.6870     2.7530    -3.1270 p5         1 OHH       1.249500
      3 O1          -1.2210     3.7190    -4.1280 o          1 OHH      -0.888833
      4 O3           0.7300     3.0800    -2.8140 o          1 OHH      -0.888833
      5 O2          -1.5150     2.7830    -1.8910 o          1 OHH      -0.888833
      6 C9          -0.7210     1.1090    -3.8820 c3         1 OHH      -0.403400
      7 O4          -0.9460    -0.3040    -2.0140 o          1 OHH      -0.597100
      8 C17          4.4710     0.1620    -4.7610 ca         1 OHH      -0.075000
      9 C16          5.8250    -0.2140    -4.7150 ca         1 OHH      -0.144000
     10 C15          6.3220    -0.9170    -3.6060 ca         1 OHH      -0.134000
     11 C14          5.4650    -1.2450    -2.5420 ca         1 OHH      -0.101000
     12 C4B          4.1090    -0.8700    -2.5880 ca         1 OHH      -0.034000
     13 C8B          3.6090    -0.1650    -3.6950 ca         1 OHH      -0.033000
     14 C18          2.2520     0.2020    -3.7420 ca         1 OHH      -0.039000
     15 C11          1.3530    -0.1170    -2.6880 ca         1 OHH      -0.068600
     16 C12          1.8910    -0.8100    -1.5540 ca         1 OHH      -0.064600
     17 C13          3.2490    -1.1880    -1.5300 ca         1 OHH      -0.115000
     18 O5           0.8300    -2.3460    -0.0750 o          1 OHH      -0.650100
     19 C1          -4.4120    -0.4990    -5.5970 ca         1 OHH      -0.178000
     20 C2          -4.4590     0.5320    -4.6530 ca         1 OHH      -0.078000
     21 C3          -3.2720     1.0410    -4.1080 ca         1 OHH      -0.102000
     22 C4          -2.0100     0.5360    -4.4970 ca         1 OHH       0.081700
     23 C4A         -1.9670    -0.5250    -5.4500 ca         1 OHH      -0.030000
     24 C8A         -3.1750    -1.0310    -5.9950 ca         1 OHH      -0.031000
     25 C8          -3.1530    -2.0770    -6.9380 ca         1 OHH      -0.121000
     26 C7          -1.9340    -2.6340    -7.3490 ca         1 OHH      -0.134000
     27 C6          -0.7330    -2.1490    -6.8170 ca         1 OHH      -0.169000
     28 C5          -0.7450    -1.1050    -5.8760 ca         1 OHH      -0.047000
     29 N1           0.6460    -0.1190     0.5170 n          1 OHH      -0.375800
     30 C20          1.2120     1.2470     0.3540 c3         1 OHH       0.041300
     31 C24         -2.2520     0.3150     3.0620 c6         1 OHH       0.094500
     32 N2          -1.4630     0.1510     4.3130 n          1 OHH      -0.395800
     33 C23         -0.3720    -0.8570     4.1850 c6         1 OHH       0.094500
     34 C22          0.5600    -0.5420     2.9910 c6         1 OHH      -0.122900
     35 C21         -0.2450    -0.3930     1.6780 c6         1 OHH       0.119700
     36 C25         -1.3490     0.6790     1.8640 c6         1 OHH      -0.122900
     37 C26         -1.4460     1.1590     5.3080 c          1 OHH       0.604700
     38 C29          0.1300     1.5600     8.7720 ca         1 OHH      -0.119000
     39 C28         -0.3470     1.8390     7.4790 ca         1 OHH      -0.053000
     40 C27         -0.9200     0.8200     6.6880 ca         1 OHH      -0.113600
     41 C34         -1.0440    -0.4790     7.2350 ca         1 OHH      -0.084000
     42 C8C         -0.5670    -0.7610     8.5290 ca         1 OHH      -0.046000
     43 C4C          0.0270     0.2610     9.2990 ca         1 OHH      -0.029000
     44 C30          0.5030    -0.0220    10.5940 ca         1 OHH      -0.098000
     45 C31          0.3870    -1.3200    11.1190 ca         1 OHH      -0.119000
     46 C32         -0.2070    -2.3380    10.3530 ca         1 OHH      -0.126000
     47 C33         -0.6850    -2.0600     9.0610 ca         1 OHH      -0.091000
     48 H9          -0.0100     1.3180    -4.6750 hc         1 OHH       0.069700
     49 H17          4.0960     0.7050    -5.6260 ha         1 OHH       0.111000
     50 H16          6.4880     0.0410    -5.5400 ha         1 OHH       0.089000
     51 H15          7.3700    -1.2080    -3.5700 ha         1 OHH       0.085000
     52 H14          5.8560    -1.7900    -1.6850 ha         1 OHH       0.094000
     53 H18          1.9260     0.7290    -4.6290 ha         1 OHH       0.129000
     54 H13          3.6380    -1.7230    -0.6660 ha         1 OHH       0.101000
     55 H1          -5.3380    -0.8880    -6.0130 ha         1 OHH       0.076000
     56 H2          -5.4180     0.9390    -4.3410 ha         1 OHH       0.085000
     57 H3          -3.3500     1.8360    -3.3740 ha         1 OHH       0.171000
     58 H8          -4.0820    -2.4600    -7.3520 ha         1 OHH       0.080000
     59 H7          -1.9220    -3.4420    -8.0770 ha         1 OHH       0.075000
     60 H6           0.2140    -2.5810    -7.1320 ha         1 OHH       0.083000
     61 H5           0.2080    -0.7640    -5.4890 ha         1 OHH       0.114000
     62 H201         0.5980     1.8190    -0.3520 h1         1 OHH       0.074033
     63 H202         1.2300     1.7780     1.3130 h1         1 OHH       0.074033
     64 H203         2.2430     1.2040    -0.0190 h1         1 OHH       0.074033
     65 H241        -2.7740    -0.6290     2.8500 h1         1 OHH       0.044450
     66 H242        -3.0260     1.0850     3.1900 h1         1 OHH       0.044450
     67 H231        -0.8210    -1.8510     4.0500 h1         1 OHH       0.044450
     68 H232         0.2430    -0.8950     5.0930 h1         1 OHH       0.044450
     69 H221         1.3030    -1.3440     2.8850 hc         1 OHH       0.079700
     70 H222         1.1190     0.3790     3.2020 hc         1 OHH       0.079700
     71 H21         -0.7650    -1.3460     1.4970 h1         1 OHH       0.056700
     72 H251        -0.9140     1.6720     2.0390 hc         1 OHH       0.079700
     73 H252        -1.9550     0.7540     0.9510 hc         1 OHH       0.079700
     74 H29          0.5780     2.3570     9.3610 ha         1 OHH       0.113000
     75 H28         -0.2610     2.8510     7.0870 ha         1 OHH       0.148000
     76 H34         -1.5260    -1.2680     6.6630 ha         1 OHH       0.119000
     77 H30          0.9610     0.7620    11.1930 ha         1 OHH       0.108000
     78 H31          0.7560    -1.5370    12.1190 ha         1 OHH       0.100000
     79 H32         -0.2970    -3.3420    10.7610 ha         1 OHH       0.101000
     80 H33         -1.1430    -2.8530     8.4750 ha         1 OHH       0.109000
     81 C19          1.0830    -1.1710    -0.3270 c          1 OHH       0.640700
     82 C10         -0.1490     0.2100    -2.7910 c          1 OHH       0.626700
@<TRIPOS>BOND
     1     1    37 2   
     2     2     3 1   
     3     2     4 1   
     4     2     5 1   
     5     2     6 1   
     6     6    22 1   
     7     6    48 1   
     8     6    82 1   
     9     7    82 2   
    10     8     9 ar  
    11     8    13 ar  
    12     8    49 1   
    13     9    10 ar  
    14     9    50 1   
    15    10    11 ar  
    16    10    51 1   
    17    11    12 ar  
    18    11    52 1   
    19    12    13 ar  
    20    12    17 ar  
    21    13    14 ar  
    22    14    15 ar  
    23    14    53 1   
    24    15    16 ar  
    25    15    82 1   
    26    16    17 ar  
    27    16    81 1   
    28    17    54 1   
    29    18    81 2   
    30    19    20 ar  
    31    19    24 ar  
    32    19    55 1   
    33    20    21 ar  
    34    20    56 1   
    35    21    22 ar  
    36    21    57 1   
    37    22    23 ar  
    38    23    24 ar  
    39    23    28 ar  
    40    24    25 ar  
    41    25    26 ar  
    42    25    58 1   
    43    26    27 ar  
    44    26    59 1   
    45    27    28 ar  
    46    27    60 1   
    47    28    61 1   
    48    29    30 1   
    49    29    35 1   
    50    29    81 1   
    51    30    62 1   
    52    30    63 1   
    53    30    64 1   
    54    31    32 1   
    55    31    36 1   
    56    31    65 1   
    57    31    66 1   
    58    32    33 1   
    59    32    37 1   
    60    33    34 1   
    61    33    67 1   
    62    33    68 1   
    63    34    35 1   
    64    34    69 1   
    65    34    70 1   
    66    35    36 1   
    67    35    71 1   
    68    36    72 1   
    69    36    73 1   
    70    37    40 1   
    71    38    39 ar  
    72    38    43 ar  
    73    38    74 1   
    74    39    40 ar  
    75    39    75 1   
    76    40    41 ar  
    77    41    42 ar  
    78    41    76 1   
    79    42    43 ar  
    80    42    47 ar  
    81    43    44 ar  
    82    44    45 ar  
    83    44    77 1   
    84    45    46 ar  
    85    45    78 1   
    86    46    47 ar  
    87    46    79 1   
    88    47    80 1   
@<TRIPOS>SUBSTRUCTURE
     1 OHH         1 TEMP              0 ****  ****    0 ROOT
