@<TRIPOS>MOLECULE
OHH
   82    88     1     0     0
SMALL
abcg2


@<TRIPOS>ATOM
      1 O6          -2.9340     0.3680     4.0370 o          1 OHH      -0.578100
      2 P1          -0.2780     2.2150    -2.0580 p5         1 OHH       1.249500
      3 O1          -0.9780     3.2580    -2.9230 o          1 OHH      -0.888833
      4 O3           1.2330     2.3900    -1.9520 o          1 OHH      -0.888833
      5 O2          -0.9960     1.8830    -0.7520 o          1 OHH      -0.888833
      6 C9          -0.4420     0.6190    -3.1850 c3         1 OHH      -0.403400
      7 O4          -0.3980    -1.3870    -1.9070 o          1 OHH      -0.597100
      8 C17          4.5560     0.0200    -4.8900 ca         1 OHH      -0.075000
      9 C16          5.9030    -0.2050    -4.9670 ca         1 OHH      -0.144000
     10 C15          6.5690    -0.8970    -3.9330 ca         1 OHH      -0.134000
     11 C14          5.8760    -1.3490    -2.8440 ca         1 OHH      -0.101000
     12 C4B          4.4840    -1.1290    -2.7380 ca         1 OHH      -0.034000
     13 C8B          3.8150    -0.4350    -3.7750 ca         1 OHH      -0.033000
     14 C18          2.4250    -0.2120    -3.6600 ca         1 OHH      -0.039000
     15 C11          1.7030    -0.6600    -2.5850 ca         1 OHH      -0.068600
     16 C12          2.3820    -1.3660    -1.5490 ca         1 OHH      -0.064600
     17 C13          3.7290    -1.5880    -1.6360 ca         1 OHH      -0.115000
     18 O5           1.5210    -3.1610    -0.2900 o          1 OHH      -0.650100
     19 C1          -4.5780    -0.1040    -4.2160 ca         1 OHH      -0.178000
     20 C2          -4.1580    -0.0910    -2.9150 ca         1 OHH      -0.078000
     21 C3          -2.8080     0.1460    -2.5990 ca         1 OHH      -0.102000
     22 C4          -1.8610     0.3670    -3.5740 ca         1 OHH       0.081700
     23 C4A         -2.2760     0.3420    -4.9420 ca         1 OHH      -0.030000
     24 C8A         -3.6480     0.1140    -5.2570 ca         1 OHH      -0.031000
     25 C8          -4.0660     0.0990    -6.6100 ca         1 OHH      -0.121000
     26 C7          -3.1740     0.2920    -7.6280 ca         1 OHH      -0.134000
     27 C6          -1.8140     0.5060    -7.3290 ca         1 OHH      -0.169000
     28 C5          -1.3830     0.5290    -6.0300 ca         1 OHH      -0.047000
     29 N1           1.3330    -1.0950     0.6300 n          1 OHH      -0.375800
     30 C20          1.5990     0.3290     0.5850 c3         1 OHH       0.041300
     31 C24         -1.7950    -1.7430     2.6890 c6         1 OHH       0.094500
     32 N2          -1.3020    -1.2000     3.9470 n          1 OHH      -0.395800
     33 C23          0.0840    -1.5610     4.2060 c6         1 OHH       0.094500
     34 C22          0.9820    -1.0440     3.0860 c6         1 OHH      -0.122900
     35 C21          0.5110    -1.5750     1.7340 c6         1 OHH       0.119700
     36 C25         -0.9670    -1.2480     1.5110 c6         1 OHH      -0.122900
     37 C26         -1.9380    -0.1560     4.5200 c          1 OHH       0.604700
     38 C29         -0.8890     2.2760     7.1860 ca         1 OHH      -0.119000
     39 C28         -1.2560     1.7490     5.9810 ca         1 OHH      -0.053000
     40 C27         -1.4290     0.3530     5.8320 ca         1 OHH      -0.113600
     41 C34         -1.2580    -0.4740     6.9110 ca         1 OHH      -0.084000
     42 C8C         -0.8990     0.0470     8.1750 ca         1 OHH      -0.046000
     43 C4C         -0.7060     1.4450     8.3160 ca         1 OHH      -0.029000
     44 C30         -0.3420     1.9640     9.5800 ca         1 OHH      -0.098000
     45 C31         -0.1790     1.1310    10.6540 ca         1 OHH      -0.119000
     46 C32         -0.3720    -0.2600    10.5140 ca         1 OHH      -0.126000
     47 C33         -0.7250    -0.7900     9.3030 ca         1 OHH      -0.091000
     48 H9           0.1530     0.9430    -4.0340 hc         1 OHH       0.069700
     49 H17          4.0410     0.5480    -5.6840 ha         1 OHH       0.111000
     50 H16          6.4640     0.1480    -5.8230 ha         1 OHH       0.089000
     51 H15          7.6350    -1.0690    -4.0080 ha         1 OHH       0.085000
     52 H14          6.3870    -1.8810    -2.0500 ha         1 OHH       0.094000
     53 H18          1.9350     0.3050    -4.4730 ha         1 OHH       0.129000
     54 H13          4.2440    -2.1150    -0.8400 ha         1 OHH       0.101000
     55 H1          -5.6180    -0.2780    -4.4640 ha         1 OHH       0.076000
     56 H2          -4.8690    -0.2550    -2.1150 ha         1 OHH       0.085000
     57 H3          -2.5040     0.1960    -1.5650 ha         1 OHH       0.171000
     58 H8          -5.1140    -0.0730    -6.8260 ha         1 OHH       0.080000
     59 H7          -3.5060     0.2770    -8.6580 ha         1 OHH       0.075000
     60 H6          -1.1030     0.6490    -8.1320 ha         1 OHH       0.083000
     61 H5          -0.3300     0.6880    -5.8450 ha         1 OHH       0.114000
     62 H201         2.0580     0.6230    -0.3510 h1         1 OHH       0.074033
     63 H202         0.6750     0.9020     0.6410 h1         1 OHH       0.074033
     64 H203         2.2680     0.6180     1.3980 h1         1 OHH       0.074033
     65 H241        -1.7310    -2.8340     2.7550 h1         1 OHH       0.044450
     66 H242        -2.8450    -1.4890     2.5660 h1         1 OHH       0.044450
     67 H231         0.1510    -2.6500     4.2800 h1         1 OHH       0.044450
     68 H232         0.4130    -1.1540     5.1570 h1         1 OHH       0.044450
     69 H221         2.0120    -1.3530     3.2750 hc         1 OHH       0.079700
     70 H222         0.9590     0.0480     3.1140 hc         1 OHH       0.079700
     71 H21          0.6150    -2.6620     1.7620 h1         1 OHH       0.056700
     72 H251        -1.1080    -0.1730     1.3740 hc         1 OHH       0.079700
     73 H252        -1.3150    -1.7270     0.5950 hc         1 OHH       0.079700
     74 H29         -0.7430     3.3450     7.2900 ha         1 OHH       0.113000
     75 H28         -1.4040     2.4010     5.1290 ha         1 OHH       0.148000
     76 H34         -1.4050    -1.5440     6.8120 ha         1 OHH       0.119000
     77 H30         -0.1950     3.0310     9.6880 ha         1 OHH       0.108000
     78 H31          0.1010     1.5360    11.6170 ha         1 OHH       0.100000
     79 H32         -0.2380    -0.9080    11.3700 ha         1 OHH       0.101000
     80 H33         -0.8710    -1.8580     9.1920 ha         1 OHH       0.109000
     81 C19          1.6750    -1.9460    -0.3530 c          1 OHH       0.640700
     82 C10          0.2110    -0.5290    -2.5210 c          1 OHH       0.626700
@<TRIPOS>BOND
     1     1    37 2   
     2     2     3 1   
     3     2     4 1   
     4     2     5 1   
     5     2     6 1   
     6     6    22 1   
     7     6    48 1   
     8     6    82 1   
     9     7    82 2   
    10     8     9 ar  
    11     8    13 ar  
    12     8    49 1   
    13     9    10 ar  
    14     9    50 1   
    15    10    11 ar  
    16    10    51 1   
    17    11    12 ar  
    18    11    52 1   
    19    12    13 ar  
    20    12    17 ar  
    21    13    14 ar  
    22    14    15 ar  
    23    14    53 1   
    24    15    16 ar  
    25    15    82 1   
    26    16    17 ar  
    27    16    81 1   
    28    17    54 1   
    29    18    81 2   
    30    19    20 ar  
    31    19    24 ar  
    32    19    55 1   
    33    20    21 ar  
    34    20    56 1   
    35    21    22 ar  
    36    21    57 1   
    37    22    23 ar  
    38    23    24 ar  
    39    23    28 ar  
    40    24    25 ar  
    41    25    26 ar  
    42    25    58 1   
    43    26    27 ar  
    44    26    59 1   
    45    27    28 ar  
    46    27    60 1   
    47    28    61 1   
    48    29    30 1   
    49    29    35 1   
    50    29    81 1   
    51    30    62 1   
    52    30    63 1   
    53    30    64 1   
    54    31    32 1   
    55    31    36 1   
    56    31    65 1   
    57    31    66 1   
    58    32    33 1   
    59    32    37 1   
    60    33    34 1   
    61    33    67 1   
    62    33    68 1   
    63    34    35 1   
    64    34    69 1   
    65    34    70 1   
    66    35    36 1   
    67    35    71 1   
    68    36    72 1   
    69    36    73 1   
    70    37    40 1   
    71    38    39 ar  
    72    38    43 ar  
    73    38    74 1   
    74    39    40 ar  
    75    39    75 1   
    76    40    41 ar  
    77    41    42 ar  
    78    41    76 1   
    79    42    43 ar  
    80    42    47 ar  
    81    43    44 ar  
    82    44    45 ar  
    83    44    77 1   
    84    45    46 ar  
    85    45    78 1   
    86    46    47 ar  
    87    46    79 1   
    88    47    80 1   
@<TRIPOS>SUBSTRUCTURE
     1 OHH         1 TEMP              0 ****  ****    0 ROOT
