@<TRIPOS>MOLECULE
OHJ
   25    25     1     0     0
SMALL
bcc


@<TRIPOS>ATOM
      1 C10          2.9820    -1.2420     0.1840 c3         1 OHJ       0.121100
      2 C01         -4.7000    -1.1840    -0.4300 c3         1 OHJ      -0.088100
      3 C02         -3.8390    -0.0700     0.1480 c3         1 OHJ      -0.076400
      4 C03         -2.3580    -0.2590    -0.1570 c3         1 OHJ      -0.073400
      5 C05         -0.0390     0.6510     0.1870 cc         1 OHJ       0.403800
      6 N06          0.7830     1.6130    -0.2770 na         1 OHJ      -0.303900
      7 C07          2.0490     1.0940    -0.3590 cc         1 OHJ      -0.228600
      8 C08          1.9260    -0.1960     0.0680 cd         1 OHJ       0.299600
      9 N09          0.6270    -0.4590     0.4040 nd         1 OHJ      -0.682000
     10 O11          4.2140    -0.6790    -0.1920 oh         1 OHJ      -0.603800
     11 H1           3.0030    -1.6200     1.2150 h1         1 OHJ       0.033200
     12 H2           2.7140    -2.0990    -0.4490 h1         1 OHJ       0.033200
     13 H3          -5.7550    -1.0390    -0.1930 hc         1 OHJ       0.033033
     14 H4          -4.6070    -1.2290    -1.5170 hc         1 OHJ       0.033033
     15 H5          -4.4040    -2.1570    -0.0340 hc         1 OHJ       0.033033
     16 H6          -4.1720     0.8940    -0.2480 hc         1 OHJ       0.034700
     17 H7          -3.9800    -0.0190     1.2330 hc         1 OHJ       0.034700
     18 H8          -2.0210    -1.2180     0.2450 hc         1 OHJ       0.054200
     19 H9          -2.2090    -0.3090    -1.2400 hc         1 OHJ       0.054200
     20 H10         -1.7990     1.8200    -0.0020 hc         1 OHJ       0.047700
     21 H11         -1.6780     0.9340     1.5000 hc         1 OHJ       0.047700
     22 H12          0.5170     2.5540    -0.5200 hn         1 OHJ       0.297700
     23 H13          2.8850     1.6740    -0.7090 h4         1 OHJ       0.186000
     24 H15          4.8900    -1.3590    -0.1170 ho         1 OHJ       0.406000
     25 C04         -1.4960     0.8600     0.4230 c3         1 OHJ      -0.096700
@<TRIPOS>BOND
     1     1     8 1   
     2     1    10 1   
     3     1    11 1   
     4     1    12 1   
     5     2     3 1   
     6     2    13 1   
     7     2    14 1   
     8     2    15 1   
     9     3     4 1   
    10     3    16 1   
    11     3    17 1   
    12     4    18 1   
    13     4    19 1   
    14     4    25 1   
    15     5     6 1   
    16     5     9 2   
    17     5    25 1   
    18     6     7 1   
    19     6    22 1   
    20     7     8 2   
    21     7    23 1   
    22     8     9 1   
    23    10    24 1   
    24    20    25 1   
    25    21    25 1   
@<TRIPOS>SUBSTRUCTURE
     1 OHJ         1 TEMP              0 ****  ****    0 ROOT
