@<TRIPOS>MOLECULE
OHJ
   25    25     1     0     0
SMALL
No Charge or Current Charge


@<TRIPOS>ATOM
      1 C10          3.3060    -1.0500     0.2880 c3         1 OHJ       0.144300
      2 C01         -4.9040    -0.8370    -0.5130 c3         1 OHJ      -0.088100
      3 C02         -3.8920    -0.0200     0.3120 c3         1 OHJ      -0.076400
      4 C03         -2.4340    -0.2060    -0.1630 c3         1 OHJ      -0.073400
      5 C05          0.0030     0.4330     0.1990 cc         1 OHJ       0.403800
      6 N06          0.5650     1.1210    -0.8470 na         1 OHJ      -0.303500
      7 C07          1.8700     0.6920    -0.9860 cc         1 OHJ      -0.196000
      8 C08          2.0440    -0.2510    -0.0030 cd         1 OHJ       0.234300
      9 N09          0.8780    -0.4070     0.7260 nd         1 OHJ      -0.682000
     10 O11          4.3660    -0.2310     0.8180 oh         1 OHJ      -0.666000
     11 H1           3.0600    -1.8530     0.9960 h1         1 OHJ       0.033200
     12 H2           3.6310    -1.5290    -0.6450 h1         1 OHJ       0.033200
     13 H3          -5.9220    -0.6740    -0.1400 hc         1 OHJ       0.033033
     14 H4          -4.8740    -0.5420    -1.5690 hc         1 OHJ       0.033033
     15 H5          -4.6830    -1.9100    -0.4470 hc         1 OHJ       0.033033
     16 H6          -4.1600     1.0420     0.2540 hc         1 OHJ       0.034700
     17 H7          -3.9710    -0.3130     1.3660 hc         1 OHJ       0.034700
     18 H8          -2.1680    -1.2690    -0.1060 hc         1 OHJ       0.054200
     19 H9          -2.3580     0.0850    -1.2190 hc         1 OHJ       0.054200
     20 H10         -1.6830     1.6760     0.6130 hc         1 OHJ       0.047700
     21 H11         -1.4960     0.3250     1.7190 hc         1 OHJ       0.047700
     22 H12          0.0890     1.8190    -1.4070 hn         1 OHJ       0.348000
     23 H13          2.5540     1.0690    -1.7370 h4         1 OHJ       0.168000
     24 H15          5.1290    -0.8280     0.9920 ho         1 OHJ       0.445000
     25 C04         -1.4170     0.6130     0.6640 c3         1 OHJ      -0.096700
@<TRIPOS>BOND
     1     1     8 1   
     2     1    10 1   
     3     1    11 1   
     4     1    12 1   
     5     2     3 1   
     6     2    13 1   
     7     2    14 1   
     8     2    15 1   
     9     3     4 1   
    10     3    16 1   
    11     3    17 1   
    12     4    18 1   
    13     4    19 1   
    14     4    25 1   
    15     5     6 1   
    16     5     9 2   
    17     5    25 1   
    18     6     7 1   
    19     6    22 1   
    20     7     8 2   
    21     7    23 1   
    22     8     9 1   
    23    10    24 1   
    24    20    25 1   
    25    21    25 1   
@<TRIPOS>SUBSTRUCTURE
     1 OHJ         1 TEMP              0 ****  ****    0 ROOT
