@<TRIPOS>MOLECULE
OHK
   55    58     1     0     0
SMALL
No Charge or Current Charge


@<TRIPOS>ATOM
      1 C1          23.2130     7.8080     4.3850 c6         1 OHK      -0.084700
      2 C2          21.9820     7.6550     3.4480 c6         1 OHK      -0.109900
      3 C3          22.0500     8.6610     2.2740 c6         1 OHK       0.155600
      4 C5          23.3670    10.2260     3.5640 c6         1 OHK       0.155600
      5 C6          23.3720     9.2990     4.8040 c6         1 OHK      -0.109900
      6 C7          23.1200     6.8400     5.6000 c3         1 OHK       0.104000
      7 C12         25.6230     8.8620    10.2680 cc         1 OHK      -0.086000
      8 C15         28.3450     8.0470    10.7330 cc         1 OHK      -0.078000
      9 C16         27.5900     7.6250     9.6210 cc         1 OHK      -0.140000
     10 C17         27.9160     6.7990     8.5800 cd         1 OHK      -0.075400
     11 C19         25.6720    10.2340    12.3660 ca         1 OHK      -0.050000
     12 C23         23.6730    11.2530    13.3360 ca         1 OHK       0.109100
     13 C24         24.2610    10.3780    12.3940 ca         1 OHK      -0.161000
     14 O25         22.3030    11.4430    13.4380 os         1 OHK      -0.347100
     15 C27         21.4800    11.8290    11.1880 c3         1 OHK      -0.108600
     16 O29         23.5250     8.2430     8.0770 o          1 OHK      -0.630100
     17 O4          22.1710    10.0050     2.7860 os         1 OHK      -0.450000
     18 N8          24.3150     6.8620     6.4500 ns         1 OHK      -0.480900
     19 C9          24.4520     7.5770     7.6260 c          1 OHK       0.569800
     20 C10         25.8160     7.4350     8.2470 cc         1 OHK       0.247800
     21 N11         26.3170     8.0010     9.4060 na         1 OHK       0.105200
     22 C13         26.3450     9.3340    11.3840 cd         1 OHK      -0.059000
     23 C14         27.7220     8.8950    11.6180 cd         1 OHK      -0.093000
     24 N18         26.8140     6.6860     7.7300 nd         1 OHK      -0.540300
     25 C20         26.4190    10.9870    13.3110 ca         1 OHK       0.306900
     26 N21         25.8670    11.8230    14.2230 nb         1 OHK      -0.635000
     27 C22         24.5190    11.9430    14.2290 ca         1 OHK       0.308900
     28 C26         21.3540    10.9660    12.4640 c3         1 OHK       0.178300
     29 C28         19.9620    11.0880    13.1110 c3         1 OHK      -0.108600
     30 H1          24.1090     7.5100     3.8210 hc         1 OHK       0.046700
     31 H2          21.0540     7.8200     4.0130 hc         1 OHK       0.054200
     32 H3          21.9300     6.6310     3.0530 hc         1 OHK       0.054200
     33 H4          21.1380     8.5900     1.6650 h1         1 OHK       0.043450
     34 H5          22.9120     8.4370     1.6280 h1         1 OHK       0.043450
     35 H6          24.2500    10.0300     2.9370 h1         1 OHK       0.043450
     36 H7          23.3990    11.2780     3.8810 h1         1 OHK       0.043450
     37 H8          24.3080     9.4460     5.3590 hc         1 OHK       0.054200
     38 H9          22.5560     9.5910     5.4790 hc         1 OHK       0.054200
     39 H10         22.2340     7.0920     6.1980 h1         1 OHK       0.060200
     40 H11         22.9860     5.8160     5.2270 h1         1 OHK       0.060200
     41 H12         24.6120     9.1290    10.0070 h4         1 OHK       0.183000
     42 H13         29.3670     7.7070    10.8750 ha         1 OHK       0.136000
     43 H14         28.8620     6.2880     8.3960 h4         1 OHK       0.235000
     44 H15         23.6320     9.8040    11.7260 ha         1 OHK       0.128000
     45 H16         22.4630    11.7100    10.7200 hc         1 OHK       0.049367
     46 H17         20.7220    11.5340    10.4530 hc         1 OHK       0.049367
     47 H18         21.3360    12.8900    11.4210 hc         1 OHK       0.049367
     48 H19         25.1340     6.3390     6.1570 hn         1 OHK       0.339500
     49 H20         28.2790     9.2090    12.4920 ha         1 OHK       0.131000
     50 H21         27.5050    10.9550    13.3340 h4         1 OHK       0.024100
     51 H22         24.0990    12.6190    14.9730 h4         1 OHK       0.034100
     52 H23         21.5250     9.9080    12.2250 h1         1 OHK       0.042700
     53 H24         19.9070    10.4750    14.0180 hc         1 OHK       0.049367
     54 H25         19.7460    12.1290    13.3800 hc         1 OHK       0.049367
     55 H26         19.1860    10.7420    12.4190 hc         1 OHK       0.049367
@<TRIPOS>BOND
     1     1     2 1   
     2     1     5 1   
     3     1     6 1   
     4     1    30 1   
     5     2     3 1   
     6     2    31 1   
     7     2    32 1   
     8     3    17 1   
     9     3    33 1   
    10     3    34 1   
    11     4     5 1   
    12     4    17 1   
    13     4    35 1   
    14     4    36 1   
    15     5    37 1   
    16     5    38 1   
    17     6    18 1   
    18     6    39 1   
    19     6    40 1   
    20     7    21 1   
    21     7    22 2   
    22     7    41 1   
    23     8     9 1   
    24     8    23 2   
    25     8    42 1   
    26     9    10 2   
    27     9    21 1   
    28    10    24 1   
    29    10    43 1   
    30    11    13 ar  
    31    11    22 1   
    32    11    25 ar  
    33    12    13 ar  
    34    12    14 1   
    35    12    27 ar  
    36    13    44 1   
    37    14    28 1   
    38    15    28 1   
    39    15    45 1   
    40    15    46 1   
    41    15    47 1   
    42    16    19 2   
    43    18    19 1   
    44    18    48 1   
    45    19    20 1   
    46    20    21 1   
    47    20    24 2   
    48    22    23 1   
    49    23    49 1   
    50    25    26 ar  
    51    25    50 1   
    52    26    27 ar  
    53    27    51 1   
    54    28    29 1   
    55    28    52 1   
    56    29    53 1   
    57    29    54 1   
    58    29    55 1   
@<TRIPOS>SUBSTRUCTURE
     1 OHK         1 TEMP              0 ****  ****    0 ROOT
