@<TRIPOS>MOLECULE
OHK
   55    58     1     0     0
SMALL
abcg2


@<TRIPOS>ATOM
      1 C1          23.2990     7.8620     4.2260 c6         1 OHK      -0.084700
      2 C2          22.0840     8.0210     3.3140 c6         1 OHK      -0.109900
      3 C3          22.4850     8.6780     2.0030 c6         1 OHK       0.155600
      4 C5          24.2900     9.7960     2.9900 c6         1 OHK       0.155600
      5 C6          23.9980     9.2120     4.3630 c6         1 OHK      -0.109900
      6 C7          22.8900     7.2690     5.5710 c3         1 OHK       0.104000
      7 C12         25.4570     9.0500    10.1540 cc         1 OHK      -0.086000
      8 C15         27.9410     7.9310    10.7630 cc         1 OHK      -0.078000
      9 C16         27.2270     7.5060     9.6250 cc         1 OHK      -0.140000
     10 C17         27.4370     6.5830     8.6120 cd         1 OHK      -0.075400
     11 C19         25.5490    10.4920    12.1330 ca         1 OHK      -0.050000
     12 C23         23.6840    11.4760    13.2750 ca         1 OHK       0.109100
     13 C24         24.1910    10.4830    12.4480 ca         1 OHK      -0.161000
     14 O25         22.4160    11.5810    13.6940 os         1 OHK      -0.347100
     15 C27         20.9650    11.1350    11.7980 c3         1 OHK      -0.108600
     16 O29         23.5260     8.7090     7.9540 o          1 OHK      -0.630100
     17 O4          23.1230     9.9210     2.2060 os         1 OHK      -0.450000
     18 N8          24.0100     7.0650     6.4590 ns         1 OHK      -0.480900
     19 C9          24.2650     7.8220     7.5360 c          1 OHK       0.569800
     20 C10         25.5360     7.4930     8.2010 cc         1 OHK       0.247800
     21 N11         25.9960     8.0820     9.3470 na         1 OHK       0.105200
     22 C13         26.1340     9.4600    11.2590 cd         1 OHK      -0.059000
     23 C14         27.4080     8.8890    11.5650 cd         1 OHK      -0.093000
     24 N18         26.4010     6.5960     7.7660 nd         1 OHK      -0.540300
     25 C20         26.3430    11.5020    12.6660 ca         1 OHK       0.306900
     26 N21         25.8600    12.4530    13.4560 nb         1 OHK      -0.635000
     27 C22         24.5740    12.4450    13.7530 ca         1 OHK       0.308900
     28 C26         21.4030    10.7020    13.1870 c3         1 OHK       0.178300
     29 C28         20.2650    10.7490    14.1850 c3         1 OHK      -0.108600
     30 H1          23.9960     7.1650     3.7410 hc         1 OHK       0.046700
     31 H2          21.3250     8.6320     3.8140 hc         1 OHK       0.054200
     32 H3          21.6270     7.0500     3.1020 hc         1 OHK       0.054200
     33 H4          21.6090     8.8680     1.3800 h1         1 OHK       0.043450
     34 H5          23.1460     7.9990     1.4440 h1         1 OHK       0.043450
     35 H6          25.0270     9.1590     2.4760 h1         1 OHK       0.043450
     36 H7          24.7230    10.7940     3.0750 h1         1 OHK       0.043450
     37 H8          24.9400     9.1150     4.9080 hc         1 OHK       0.054200
     38 H9          23.3640     9.9000     4.9330 hc         1 OHK       0.054200
     39 H10         22.1740     7.9260     6.0670 h1         1 OHK       0.060200
     40 H11         22.3910     6.3090     5.4120 h1         1 OHK       0.060200
     41 H12         24.5080     9.4580     9.8500 h4         1 OHK       0.183000
     42 H13         28.8970     7.4780    10.9820 ha         1 OHK       0.136000
     43 H14         28.2900     5.9360     8.4850 h4         1 OHK       0.235000
     44 H15         23.5670     9.6870    12.0640 ha         1 OHK       0.128000
     45 H16         21.7810    11.1170    11.0750 hc         1 OHK       0.049367
     46 H17         20.1890    10.4640    11.4310 hc         1 OHK       0.049367
     47 H18         20.5540    12.1460    11.8220 hc         1 OHK       0.049367
     48 H19         24.7030     6.3790     6.2000 hn         1 OHK       0.339500
     49 H20         27.9370     9.2100    12.4520 ha         1 OHK       0.131000
     50 H21         27.4000    11.5550    12.4320 h4         1 OHK       0.024100
     51 H22         24.2070    13.2310    14.4060 h4         1 OHK       0.034100
     52 H23         21.7930     9.6790    13.1530 h1         1 OHK       0.042700
     53 H24         20.5910    10.4250    15.1740 hc         1 OHK       0.049367
     54 H25         19.8510    11.7550    14.2660 hc         1 OHK       0.049367
     55 H26         19.4650    10.0830    13.8620 hc         1 OHK       0.049367
@<TRIPOS>BOND
     1     1     2 1   
     2     1     5 1   
     3     1     6 1   
     4     1    30 1   
     5     2     3 1   
     6     2    31 1   
     7     2    32 1   
     8     3    17 1   
     9     3    33 1   
    10     3    34 1   
    11     4     5 1   
    12     4    17 1   
    13     4    35 1   
    14     4    36 1   
    15     5    37 1   
    16     5    38 1   
    17     6    18 1   
    18     6    39 1   
    19     6    40 1   
    20     7    21 1   
    21     7    22 2   
    22     7    41 1   
    23     8     9 1   
    24     8    23 2   
    25     8    42 1   
    26     9    10 2   
    27     9    21 1   
    28    10    24 1   
    29    10    43 1   
    30    11    13 ar  
    31    11    22 1   
    32    11    25 ar  
    33    12    13 ar  
    34    12    14 1   
    35    12    27 ar  
    36    13    44 1   
    37    14    28 1   
    38    15    28 1   
    39    15    45 1   
    40    15    46 1   
    41    15    47 1   
    42    16    19 2   
    43    18    19 1   
    44    18    48 1   
    45    19    20 1   
    46    20    21 1   
    47    20    24 2   
    48    22    23 1   
    49    23    49 1   
    50    25    26 ar  
    51    25    50 1   
    52    26    27 ar  
    53    27    51 1   
    54    28    29 1   
    55    28    52 1   
    56    29    53 1   
    57    29    54 1   
    58    29    55 1   
@<TRIPOS>SUBSTRUCTURE
     1 OHK         1 TEMP              0 ****  ****    0 ROOT
