@<TRIPOS>MOLECULE
OHL
   41    42     1     0     0
SMALL
No Charge or Current Charge


@<TRIPOS>ATOM
      1 C           -0.5600    -0.1280     2.2670 c          1 OHL       0.571100
      2 N           -1.0630     0.8180    -0.1390 n3         1 OHL      -0.750500
      3 O           -1.4630     0.2650     3.0000 o          1 OHL      -0.572100
      4 CA          -0.7580    -0.3670     0.7400 c3         1 OHL       0.123800
      5 CAA          6.1690    -1.4080    -0.1440 c3         1 OHL       0.144900
      6 OAC         -0.0770     2.6920    -1.5190 o          1 OHL      -0.538000
      7 OAD          0.2140     2.7010     1.0330 o          1 OHL      -0.538000
      8 OAE          0.9640    -0.4890     4.1810 oh         1 OHL      -0.412100
      9 CAF         -4.8190    -1.1320    -1.4840 ca         1 OHL       0.333400
     10 CAG         -5.4090    -0.8870     0.7430 ca         1 OHL       0.333400
     11 CAH         -3.7700    -0.2050    -1.3540 ca         1 OHL      -0.150000
     12 CAI         -4.3820     0.0490     0.9590 ca         1 OHL      -0.150000
     13 CAJ          2.9280    -0.5820    -1.7880 ca         1 OHL      -0.202500
     14 CAK          3.8230     0.2500     0.3140 ca         1 OHL      -0.202500
     15 CAL          1.7750     0.2000    -1.6140 ca         1 OHL       0.032000
     16 CAM          2.6730     1.0360     0.4950 ca         1 OHL       0.032000
     17 CAO         -2.4030     1.4110     0.0730 c3         1 OHL       0.261100
     18 NAP         -5.6320    -1.4730    -0.4560 nb         1 OHL      -0.662000
     19 NAQ          0.7170    -0.4000     2.7560 ns         1 OHL      -0.388400
     20 CAT         -3.5370     0.4060    -0.1080 ca         1 OHL      -0.063300
     21 CAU          3.9530    -0.5640    -0.8310 ca         1 OHL       0.207100
     22 CAV          1.6440     1.0040    -0.4660 ca         1 OHL      -0.352500
     23 SAX          0.1620     1.9960    -0.2500 sy         1 OHL       1.185600
     24 HA           0.1350    -0.8890     0.3750 h1         1 OHL       0.090200
     25 HAA         -1.5610    -1.1110     0.6620 h1         1 OHL       0.090200
     26 HAAA         5.8450    -1.7650     0.8410 h1         1 OHL       0.049367
     27 HAAB         6.9380    -2.0950    -0.5180 h1         1 OHL       0.049367
     28 HAAC         6.6270    -0.4170    -0.0280 h1         1 OHL       0.049367
     29 HAF         -5.0140    -1.6170    -2.4390 h4         1 OHL       0.020100
     30 HAG         -6.0730    -1.1780     1.5560 h4         1 OHL       0.020100
     31 HAH         -3.1450     0.0270    -2.2110 ha         1 OHL       0.127500
     32 HAI         -4.2500     0.4820     1.9470 ha         1 OHL       0.127500
     33 HAJ          3.0280    -1.2070    -2.6710 ha         1 OHL       0.129000
     34 HAK          4.6020     0.2890     1.0700 ha         1 OHL       0.129000
     35 HAL          0.9850     0.1740    -2.3640 ha         1 OHL       0.132000
     36 HAM          2.5890     1.6640     1.3810 ha         1 OHL       0.132000
     37 HAO         -2.4730     1.8600     1.0740 h1         1 OHL       0.077700
     38 HAOA        -2.5760     2.2260    -0.6440 h1         1 OHL       0.077700
     39 H16          1.7390     0.1040     4.3220 ho         1 OHL       0.443000
     40 H17          1.4010    -0.8570     2.1540 hn         1 OHL       0.347500
     41 OAR          5.0610    -1.3550    -1.0600 os         1 OHL      -0.334100
@<TRIPOS>BOND
     1     1     3 2   
     2     1     4 1   
     3     1    19 1   
     4     2     4 1   
     5     2    17 1   
     6     2    23 1   
     7     4    24 1   
     8     4    25 1   
     9     5    26 1   
    10     5    27 1   
    11     5    28 1   
    12     5    41 1   
    13     6    23 2   
    14     7    23 2   
    15     8    19 1   
    16     8    39 1   
    17     9    11 ar  
    18     9    18 ar  
    19     9    29 1   
    20    10    12 ar  
    21    10    18 ar  
    22    10    30 1   
    23    11    20 ar  
    24    11    31 1   
    25    12    20 ar  
    26    12    32 1   
    27    13    15 ar  
    28    13    21 ar  
    29    13    33 1   
    30    14    16 ar  
    31    14    21 ar  
    32    14    34 1   
    33    15    22 ar  
    34    15    35 1   
    35    16    22 ar  
    36    16    36 1   
    37    17    20 1   
    38    17    37 1   
    39    17    38 1   
    40    19    40 1   
    41    21    41 1   
    42    22    23 1   
@<TRIPOS>SUBSTRUCTURE
     1 OHL         1 TEMP              0 ****  ****    0 ROOT
