@<TRIPOS>MOLECULE
OHL
   41    42     1     0     0
SMALL
bcc


@<TRIPOS>ATOM
      1 C            0.1960    -1.8910     0.2410 c          1 OHL       0.638100
      2 N           -1.1590     0.0850    -0.3670 n3         1 OHL      -0.750500
      3 O            0.5050    -1.5530     1.3680 o          1 OHL      -0.572100
      4 CA          -1.0450    -1.3580    -0.4680 c3         1 OHL       0.123800
      5 CAA          5.6940     0.5870     1.9170 c3         1 OHL       0.121700
      6 OAC         -0.2510     0.4380    -2.6680 o          1 OHL      -0.608800
      7 OAD         -0.5740     2.3880    -1.1120 o          1 OHL      -0.608800
      8 OAE          2.0220    -3.3360    -0.0040 oh         1 OHL      -0.373100
      9 CAF         -5.3460     0.8640    -0.3570 ca         1 OHL       0.398700
     10 CAG         -5.3900     0.1100     1.7820 ca         1 OHL       0.398700
     11 CAH         -3.9620     0.9240    -0.3680 ca         1 OHL      -0.233300
     12 CAI         -4.0050     0.1340     1.8730 ca         1 OHL      -0.233300
     13 CAJ          3.5950    -0.3060    -0.9110 ca         1 OHL      -0.220500
     14 CAK          3.1140     1.1490     0.9590 ca         1 OHL      -0.220500
     15 CAL          2.3370    -0.0650    -1.4270 ca         1 OHL       0.014000
     16 CAM          1.8530     1.3810     0.4400 ca         1 OHL       0.014000
     17 CAO         -1.7630     0.6300     0.8390 c3         1 OHL       0.261100
     18 NAP         -6.0580     0.4660     0.6930 nb         1 OHL      -0.662000
     19 NAQ          0.9080    -2.7450    -0.5070 ns         1 OHL      -0.455400
     20 CAT         -3.2650     0.5530     0.7760 ca         1 OHL      -0.063300
     21 CAU          3.9950     0.2970     0.2880 ca         1 OHL       0.207100
     22 CAV          1.4630     0.7760    -0.7460 ca         1 OHL      -0.352500
     23 SAX         -0.1820     1.0050    -1.3310 sy         1 OHL       1.327200
     24 HA          -1.0940    -1.6670    -1.5110 h1         1 OHL       0.090200
     25 HAA         -1.9240    -1.7930     0.0130 h1         1 OHL       0.090200
     26 HAAA         5.0870     0.2780     2.7710 h1         1 OHL       0.049367
     27 HAAB         6.7090     0.2260     2.0570 h1         1 OHL       0.049367
     28 HAAC         5.7110     1.6780     1.8650 h1         1 OHL       0.049367
     29 HAF         -5.9050     1.1530    -1.2400 h4         1 OHL       0.020100
     30 HAG         -5.9810    -0.2180     2.6300 h4         1 OHL       0.020100
     31 HAH         -3.4440     1.2550    -1.2580 ha         1 OHL       0.145500
     32 HAI         -3.5180    -0.1790     2.7870 ha         1 OHL       0.145500
     33 HAJ          4.2880    -0.9440    -1.4450 ha         1 OHL       0.147000
     34 HAK          3.3920     1.6370     1.8830 ha         1 OHL       0.147000
     35 HAL          2.0510    -0.5280    -2.3610 ha         1 OHL       0.150000
     36 HAM          1.1840     2.0410     0.9770 ha         1 OHL       0.150000
     37 HAO         -1.3880     0.1050     1.7180 h1         1 OHL       0.077700
     38 HAOA        -1.4740     1.6740     0.9590 h1         1 OHL       0.077700
     39 H16          2.7500    -2.7150    -0.1600 ho         1 OHL       0.404000
     40 H17          0.6550    -3.0170    -1.4460 hn         1 OHL       0.347500
     41 OAR          5.2290     0.0110     0.7080 os         1 OHL      -0.310900
@<TRIPOS>BOND
     1     1     3 2   
     2     1     4 1   
     3     1    19 1   
     4     2     4 1   
     5     2    17 1   
     6     2    23 1   
     7     4    24 1   
     8     4    25 1   
     9     5    26 1   
    10     5    27 1   
    11     5    28 1   
    12     5    41 1   
    13     6    23 2   
    14     7    23 2   
    15     8    19 1   
    16     8    39 1   
    17     9    11 ar  
    18     9    18 ar  
    19     9    29 1   
    20    10    12 ar  
    21    10    18 ar  
    22    10    30 1   
    23    11    20 ar  
    24    11    31 1   
    25    12    20 ar  
    26    12    32 1   
    27    13    15 ar  
    28    13    21 ar  
    29    13    33 1   
    30    14    16 ar  
    31    14    21 ar  
    32    14    34 1   
    33    15    22 ar  
    34    15    35 1   
    35    16    22 ar  
    36    16    36 1   
    37    17    20 1   
    38    17    37 1   
    39    17    38 1   
    40    19    40 1   
    41    21    41 1   
    42    22    23 1   
@<TRIPOS>SUBSTRUCTURE
     1 OHL         1 TEMP              0 ****  ****    0 ROOT
