@<TRIPOS>MOLECULE
OHM
   49    49     1     0     0
SMALL
abcg2


@<TRIPOS>ATOM
      1 C21          4.6490     3.4930    -9.1000 c3         1 OHM      -0.088100
      2 C20          4.5640     4.4470    -7.9170 c3         1 OHM      -0.075400
      3 C19          3.8400     3.8420    -6.7200 c3         1 OHM      -0.075400
      4 C18          3.7490     4.7870    -5.5290 c3         1 OHM      -0.074400
      5 C17          3.0320     4.1770    -4.3300 c3         1 OHM      -0.074400
      6 C16          2.9500     5.1220    -3.1380 c3         1 OHM      -0.074400
      7 C15          2.2360     4.5150    -1.9370 c3         1 OHM      -0.075400
      8 C14          2.1720     5.4660    -0.7480 c3         1 OHM      -0.066400
      9 C13          1.4510     4.8500     0.4400 c3         1 OHM      -0.177400
     10 C11          1.3780     5.7250     1.6600 c          1 OHM       0.578100
     11 O12          1.8190     6.8490     1.6960 o          1 OHM      -0.497100
     12 C10          0.7190     5.0970     2.8740 c3         1 OHM      -0.275400
     13 C8           0.4810     6.1220     3.9580 c          1 OHM       0.620100
     14 O9          -0.4540     6.9060     3.9090 o          1 OHM      -0.594100
     15 N7           1.3760     6.1190     4.9570 ns         1 OHM      -0.486900
     16 C1           1.3500     7.0950     6.0100 c5         1 OHM       0.024700
     17 C5           0.2520     6.9450     7.0610 c5         1 OHM      -0.105400
     18 C4           0.8800     7.5860     8.3000 c5         1 OHM       0.099000
     19 N3           2.2930     7.3320     8.0960 ns         1 OHM      -0.510900
     20 C2           2.6300     7.0310     6.8380 c          1 OHM       0.548000
     21 O6           3.7400     6.7620     6.4110 o          1 OHM      -0.551000
     22 H211         3.6550     3.2110    -9.4530 hc         1 OHM       0.031367
     23 H212         5.1720     2.5740    -8.8260 hc         1 OHM       0.031367
     24 H213         5.1840     3.9370    -9.9400 hc         1 OHM       0.031367
     25 H201         4.0540     5.3670    -8.2200 hc         1 OHM       0.036700
     26 H202         5.5720     4.7460    -7.6140 hc         1 OHM       0.036700
     27 H191         4.3510     2.9210    -6.4160 hc         1 OHM       0.036700
     28 H192         2.8310     3.5410    -7.0240 hc         1 OHM       0.036700
     29 H181         3.2330     5.7050    -5.8310 hc         1 OHM       0.037700
     30 H182         4.7580     5.0910    -5.2300 hc         1 OHM       0.037700
     31 H171         3.5460     3.2570    -4.0300 hc         1 OHM       0.036700
     32 H172         2.0210     3.8770    -4.6270 hc         1 OHM       0.036700
     33 H161         3.9610     5.4210    -2.8420 hc         1 OHM       0.040200
     34 H162         2.4360     6.0420    -3.4370 hc         1 OHM       0.040200
     35 H151         1.2210     4.2230    -2.2280 hc         1 OHM       0.036200
     36 H152         2.7440     3.5910    -1.6400 hc         1 OHM       0.036200
     37 H141         3.1880     5.7480    -0.4560 hc         1 OHM       0.054200
     38 H142         1.6690     6.3890    -1.0480 hc         1 OHM       0.054200
     39 H131         0.4240     4.5770     0.1700 hc         1 OHM       0.060700
     40 H132         1.9230     3.9050     0.7340 hc         1 OHM       0.060700
     41 H101        -0.2330     4.6510     2.5760 hc         1 OHM       0.081700
     42 H102         1.3510     4.2680     3.2080 hc         1 OHM       0.081700
     43 HN7          2.1560     5.4820     4.9210 hn         1 OHM       0.332500
     44 H1           1.3050     8.1040     5.5780 h1         1 OHM       0.092700
     45 H51          0.0660     5.8850     7.2420 hc         1 OHM       0.070700
     46 H52         -0.6840     7.4160     6.7720 hc         1 OHM       0.070700
     47 H41          0.6750     8.6580     8.3510 h1         1 OHM       0.049700
     48 H42          0.5340     7.1320     9.2280 h1         1 OHM       0.049700
     49 HN3          2.9830     7.4690     8.8190 hn         1 OHM       0.331500
@<TRIPOS>BOND
     1     1     2 1   
     2     1    22 1   
     3     1    23 1   
     4     1    24 1   
     5     2     3 1   
     6     2    25 1   
     7     2    26 1   
     8     3     4 1   
     9     3    27 1   
    10     3    28 1   
    11     4     5 1   
    12     4    29 1   
    13     4    30 1   
    14     5     6 1   
    15     5    31 1   
    16     5    32 1   
    17     6     7 1   
    18     6    33 1   
    19     6    34 1   
    20     7     8 1   
    21     7    35 1   
    22     7    36 1   
    23     8     9 1   
    24     8    37 1   
    25     8    38 1   
    26     9    10 1   
    27     9    39 1   
    28     9    40 1   
    29    10    11 2   
    30    10    12 1   
    31    12    13 1   
    32    12    41 1   
    33    12    42 1   
    34    13    14 2   
    35    13    15 1   
    36    15    16 1   
    37    15    43 1   
    38    16    17 1   
    39    16    20 1   
    40    16    44 1   
    41    17    18 1   
    42    17    45 1   
    43    17    46 1   
    44    18    19 1   
    45    18    47 1   
    46    18    48 1   
    47    19    20 1   
    48    19    49 1   
    49    20    21 2   
@<TRIPOS>SUBSTRUCTURE
     1 OHM         1 TEMP              0 ****  ****    0 ROOT
