@<TRIPOS>MOLECULE
OHM
   49    49     1     0     0
SMALL
No Charge or Current Charge


@<TRIPOS>ATOM
      1 C21          3.0390     5.0030    -8.7440 c3         1 OHM      -0.088100
      2 C20          3.0450     5.6050    -7.3260 c3         1 OHM      -0.075400
      3 C19          3.1080     4.5350    -6.2140 c3         1 OHM      -0.075400
      4 C18          3.1140     5.1390    -4.7930 c3         1 OHM      -0.074400
      5 C17          3.1770     4.0690    -3.6810 c3         1 OHM      -0.074400
      6 C16          3.1820     4.6730    -2.2600 c3         1 OHM      -0.074400
      7 C15          3.2450     3.6030    -1.1490 c3         1 OHM      -0.075400
      8 C14          3.2490     4.2070     0.2720 c3         1 OHM      -0.066400
      9 C13          3.3100     3.1320     1.3840 c3         1 OHM      -0.177400
     10 C11          3.3500     3.7620     2.7860 c          1 OHM       0.578100
     11 O12          4.3880     4.2170     3.2470 o          1 OHM      -0.497100
     12 C10          2.0680     3.7710     3.6000 c3         1 OHM      -0.275400
     13 C8           1.4950     5.1660     3.5130 c          1 OHM       0.620100
     14 O9           0.8130     5.5250     2.5650 o          1 OHM      -0.594100
     15 N7           1.8040     5.9890     4.5760 ns         1 OHM      -0.486900
     16 C1           1.2840     7.3770     4.5750 c5         1 OHM       0.024700
     17 C5          -0.1780     7.3300     5.0900 c5         1 OHM      -0.105400
     18 C4          -0.3150     8.7540     5.7070 c5         1 OHM       0.099000
     19 N3           1.0390     8.9870     6.2220 ns         1 OHM      -0.510900
     20 C2           2.0040     8.1920     5.6660 c          1 OHM       0.548000
     21 O6           3.1700     8.1610     6.0310 o          1 OHM      -0.551000
     22 H211         2.1710     4.3480    -8.8840 hc         1 OHM       0.031367
     23 H212         3.9490     4.4160    -8.9200 hc         1 OHM       0.031367
     24 H213         2.9940     5.7980    -9.4970 hc         1 OHM       0.031367
     25 H201         2.1420     6.2140    -7.1940 hc         1 OHM       0.036700
     26 H202         3.9040     6.2810    -7.2290 hc         1 OHM       0.036700
     27 H191         4.0110     3.9270    -6.3510 hc         1 OHM       0.036700
     28 H192         2.2490     3.8600    -6.3150 hc         1 OHM       0.036700
     29 H181         2.2100     5.7470    -4.6560 hc         1 OHM       0.037700
     30 H182         3.9730     5.8150    -4.6920 hc         1 OHM       0.037700
     31 H171         4.0800     3.4610    -3.8170 hc         1 OHM       0.036700
     32 H172         2.3180     3.3940    -3.7820 hc         1 OHM       0.036700
     33 H161         4.0410     5.3480    -2.1590 hc         1 OHM       0.040200
     34 H162         2.2780     5.2810    -2.1240 hc         1 OHM       0.040200
     35 H151         2.3860     2.9270    -1.2510 hc         1 OHM       0.036200
     36 H152         4.1480     2.9950    -1.2850 hc         1 OHM       0.036200
     37 H141         4.1080     4.8820     0.3730 hc         1 OHM       0.054200
     38 H142         2.3470     4.8170     0.4040 hc         1 OHM       0.054200
     39 H131         2.4250     2.4940     1.2820 hc         1 OHM       0.060700
     40 H132         4.2190     2.5350     1.2410 hc         1 OHM       0.060700
     41 H101         1.3410     3.0760     3.1670 hc         1 OHM       0.081700
     42 H102         2.3270     3.5420     4.6390 hc         1 OHM       0.081700
     43 HN7          2.4010     5.6110     5.3030 hn         1 OHM       0.332500
     44 H1           1.3840     7.9040     3.6170 h1         1 OHM       0.092700
     45 H51         -0.3130     6.5650     5.8650 hc         1 OHM       0.070700
     46 H52         -0.9100     7.1350     4.2980 hc         1 OHM       0.070700
     47 H41         -0.5780     9.4960     4.9410 h1         1 OHM       0.049700
     48 H42         -1.0810     8.7870     6.4930 h1         1 OHM       0.049700
     49 HN3          1.2890     9.6010     6.9900 hn         1 OHM       0.331500
@<TRIPOS>BOND
     1     1     2 1   
     2     1    22 1   
     3     1    23 1   
     4     1    24 1   
     5     2     3 1   
     6     2    25 1   
     7     2    26 1   
     8     3     4 1   
     9     3    27 1   
    10     3    28 1   
    11     4     5 1   
    12     4    29 1   
    13     4    30 1   
    14     5     6 1   
    15     5    31 1   
    16     5    32 1   
    17     6     7 1   
    18     6    33 1   
    19     6    34 1   
    20     7     8 1   
    21     7    35 1   
    22     7    36 1   
    23     8     9 1   
    24     8    37 1   
    25     8    38 1   
    26     9    10 1   
    27     9    39 1   
    28     9    40 1   
    29    10    11 2   
    30    10    12 1   
    31    12    13 1   
    32    12    41 1   
    33    12    42 1   
    34    13    14 2   
    35    13    15 1   
    36    15    16 1   
    37    15    43 1   
    38    16    17 1   
    39    16    20 1   
    40    16    44 1   
    41    17    18 1   
    42    17    45 1   
    43    17    46 1   
    44    18    19 1   
    45    18    47 1   
    46    18    48 1   
    47    19    20 1   
    48    19    49 1   
    49    20    21 2   
@<TRIPOS>SUBSTRUCTURE
     1 OHM         1 TEMP              0 ****  ****    0 ROOT
