@<TRIPOS>MOLECULE
OHN
   48    48     1     0     0
SMALL
abcg2


@<TRIPOS>ATOM
      1 C21          0.6410    -3.3570   -10.0000 c3         1 OHN      -0.088100
      2 C20         -0.2650    -4.1510    -9.0690 c3         1 OHN      -0.074400
      3 C19         -0.0400    -3.8190    -7.5990 c3         1 OHN      -0.075400
      4 C18         -0.9430    -4.6050    -6.6560 c3         1 OHN      -0.074400
      5 C17         -0.7150    -4.2690    -5.1880 c3         1 OHN      -0.074400
      6 C16         -1.6140    -5.0550    -4.2420 c3         1 OHN      -0.074400
      7 C15         -1.3640    -4.7320    -2.7740 c3         1 OHN      -0.076400
      8 C14         -2.2630    -5.5210    -1.8290 c3         1 OHN      -0.065400
      9 C13         -1.9550    -5.2160    -0.3710 c3         1 OHN      -0.177400
     10 C11         -2.8040    -5.9510     0.6280 c          1 OHN       0.579100
     11 O12         -3.6410    -6.7640     0.3180 o          1 OHN      -0.488100
     12 C10         -2.5540    -5.5840     2.0790 c3         1 OHN      -0.275400
     13 C8          -3.1800    -6.5830     3.0230 c          1 OHN       0.626100
     14 O9          -2.7300    -7.7090     3.1490 o          1 OHN      -0.583100
     15 N7          -4.2590    -6.1360     3.6930 ns         1 OHN      -0.482900
     16 C1          -4.9770    -6.9310     4.6400 c5         1 OHN      -0.006300
     17 C5          -4.7870    -6.5910     6.1150 c5         1 OHN      -0.136400
     18 C4          -6.0890    -7.1070     6.7050 c5         1 OHN       0.156600
     19 C2          -6.4830    -6.8100     4.4750 c          1 OHN       0.637100
     20 O6          -7.1010    -6.6320     3.4630 o          1 OHN      -0.470000
     21 OAP         -7.0680    -6.9310     5.6600 os         1 OHN      -0.423100
     22 H211         1.6940    -3.5640    -9.7990 hc         1 OHN       0.031367
     23 H212         0.4890    -2.2830    -9.8780 hc         1 OHN       0.031367
     24 H213         0.4540    -3.5990   -11.0470 hc         1 OHN       0.031367
     25 H201        -0.1040    -5.2220    -9.2260 hc         1 OHN       0.036700
     26 H202        -1.3110    -3.9610    -9.3270 hc         1 OHN       0.036700
     27 H191        -0.1990    -2.7460    -7.4430 hc         1 OHN       0.036700
     28 H192         1.0080    -4.0110    -7.3410 hc         1 OHN       0.036700
     29 H181        -0.7820    -5.6780    -6.8110 hc         1 OHN       0.038200
     30 H182        -1.9900    -4.4140    -6.9140 hc         1 OHN       0.038200
     31 H171        -0.8750    -3.1960    -5.0320 hc         1 OHN       0.036700
     32 H172         0.3330    -4.4600    -4.9320 hc         1 OHN       0.036700
     33 H161        -2.6630    -4.8540    -4.4860 hc         1 OHN       0.040700
     34 H162        -1.4630    -6.1280    -4.4050 hc         1 OHN       0.040700
     35 H151        -0.3150    -4.9360    -2.5340 hc         1 OHN       0.035200
     36 H152        -1.5120    -3.6590    -2.6080 hc         1 OHN       0.035200
     37 H141        -3.3090    -5.2890    -2.0430 hc         1 OHN       0.055200
     38 H142        -2.1360    -6.5910    -2.0150 hc         1 OHN       0.055200
     39 H131        -0.9090    -5.4500    -0.1420 hc         1 OHN       0.059700
     40 H132        -2.0510    -4.1430    -0.1680 hc         1 OHN       0.059700
     41 H101        -1.4780    -5.5420     2.2630 hc         1 OHN       0.079700
     42 H102        -2.9260    -4.5660     2.2320 hc         1 OHN       0.079700
     43 H7          -4.5430    -5.1770     3.5680 hn         1 OHN       0.320500
     44 H1          -4.7200    -7.9810     4.4680 h1         1 OHN       0.117700
     45 H5C1        -4.6990    -5.5100     6.2450 hc         1 OHN       0.071200
     46 H5C2        -3.9140    -7.0660     6.5560 hc         1 OHN       0.071200
     47 H4C1        -6.0350    -8.1690     6.9530 h1         1 OHN       0.067700
     48 H4C2        -6.4290    -6.5560     7.5790 h1         1 OHN       0.067700
@<TRIPOS>BOND
     1     1     2 1   
     2     1    22 1   
     3     1    23 1   
     4     1    24 1   
     5     2     3 1   
     6     2    25 1   
     7     2    26 1   
     8     3     4 1   
     9     3    27 1   
    10     3    28 1   
    11     4     5 1   
    12     4    29 1   
    13     4    30 1   
    14     5     6 1   
    15     5    31 1   
    16     5    32 1   
    17     6     7 1   
    18     6    33 1   
    19     6    34 1   
    20     7     8 1   
    21     7    35 1   
    22     7    36 1   
    23     8     9 1   
    24     8    37 1   
    25     8    38 1   
    26     9    10 1   
    27     9    39 1   
    28     9    40 1   
    29    10    11 2   
    30    10    12 1   
    31    12    13 1   
    32    12    41 1   
    33    12    42 1   
    34    13    14 2   
    35    13    15 1   
    36    15    16 1   
    37    15    43 1   
    38    16    17 1   
    39    16    19 1   
    40    16    44 1   
    41    17    18 1   
    42    17    45 1   
    43    17    46 1   
    44    18    21 1   
    45    18    47 1   
    46    18    48 1   
    47    19    20 2   
    48    19    21 1   
@<TRIPOS>SUBSTRUCTURE
     1 OHN         1 TEMP              0 ****  ****    0 ROOT
