@<TRIPOS>MOLECULE
OHN
   48    48     1     0     0
SMALL
No Charge or Current Charge


@<TRIPOS>ATOM
      1 C21          0.9860    -5.2780    -9.2290 c3         1 OHN      -0.088100
      2 C20          0.1000    -5.7340    -8.0550 c3         1 OHN      -0.074400
      3 C19         -0.0050    -4.6800    -6.9310 c3         1 OHN      -0.075400
      4 C18         -0.8940    -5.1380    -5.7540 c3         1 OHN      -0.074400
      5 C17         -0.9990    -4.0840    -4.6300 c3         1 OHN      -0.074400
      6 C16         -1.8880    -4.5410    -3.4530 c3         1 OHN      -0.074400
      7 C15         -1.9920    -3.4870    -2.3290 c3         1 OHN      -0.076400
      8 C14         -2.8810    -3.9440    -1.1520 c3         1 OHN      -0.065400
      9 C13         -2.9830    -2.8860    -0.0270 c3         1 OHN      -0.177400
     10 C11         -3.9040    -3.3510     1.1130 c          1 OHN       0.579100
     11 O12         -5.1210    -3.2780     1.0140 o          1 OHN      -0.488100
     12 C10         -3.2560    -3.8740     2.3840 c3         1 OHN      -0.275400
     13 C8          -3.3480    -5.3800     2.3420 c          1 OHN       0.626100
     14 O9          -2.5370    -6.0590     1.7310 o          1 OHN      -0.583100
     15 N7          -4.4110    -5.9190     3.0390 ns         1 OHN      -0.482900
     16 C1          -4.5760    -7.3950     3.0580 c5         1 OHN      -0.006300
     17 C5          -3.6630    -7.9010     4.2040 c5         1 OHN      -0.136400
     18 C4          -4.5030    -9.1230     4.6480 c5         1 OHN       0.156600
     19 C2          -6.0000    -7.7550     3.5520 c          1 OHN       0.637100
     20 O6          -7.0380    -7.1460     3.3330 o          1 OHN      -0.470000
     21 OAP         -5.8730    -8.6670     4.5650 os         1 OHN      -0.423100
     22 H211         2.0080    -5.0750    -8.8880 hc         1 OHN       0.031367
     23 H212         0.5850    -4.3650    -9.6860 hc         1 OHN       0.031367
     24 H213         1.0300    -6.0570   -10.0000 hc         1 OHN       0.031367
     25 H201         0.5060    -6.6660    -7.6430 hc         1 OHN       0.036700
     26 H202        -0.9040    -5.9630    -8.4340 hc         1 OHN       0.036700
     27 H191        -0.4100    -3.7490    -7.3470 hc         1 OHN       0.036700
     28 H192         1.0000    -4.4530    -6.5560 hc         1 OHN       0.036700
     29 H181        -0.4890    -6.0690    -5.3370 hc         1 OHN       0.038200
     30 H182        -1.9000    -5.3650    -6.1290 hc         1 OHN       0.038200
     31 H171        -1.4030    -3.1520    -5.0460 hc         1 OHN       0.036700
     32 H172         0.0070    -3.8560    -4.2540 hc         1 OHN       0.036700
     33 H161        -2.8930    -4.7680    -3.8280 hc         1 OHN       0.040700
     34 H162        -1.4830    -5.4720    -3.0370 hc         1 OHN       0.040700
     35 H151        -0.9860    -3.2600    -1.9540 hc         1 OHN       0.035200
     36 H152        -2.3960    -2.5560    -2.7450 hc         1 OHN       0.035200
     37 H141        -3.8870    -4.1710    -1.5290 hc         1 OHN       0.055200
     38 H142        -2.4770    -4.8780    -0.7410 hc         1 OHN       0.055200
     39 H131        -1.9710    -2.7060     0.3550 hc         1 OHN       0.059700
     40 H132        -3.3910    -1.9620    -0.4540 hc         1 OHN       0.059700
     41 H101        -2.1980    -3.5960     2.4100 hc         1 OHN       0.079700
     42 H102        -3.8300    -3.4920     3.2350 hc         1 OHN       0.079700
     43 H7          -5.0460    -5.2710     3.4950 hn         1 OHN       0.320500
     44 H1          -4.3970    -7.9000     2.0980 h1         1 OHN       0.117700
     45 H5C1        -3.5680    -7.1820     5.0270 hc         1 OHN       0.071200
     46 H5C2        -2.6550    -8.1700     3.8680 hc         1 OHN       0.071200
     47 H4C1        -4.3700    -9.9710     3.9610 h1         1 OHN       0.067700
     48 H4C2        -4.2750    -9.4600     5.6680 h1         1 OHN       0.067700
@<TRIPOS>BOND
     1     1     2 1   
     2     1    22 1   
     3     1    23 1   
     4     1    24 1   
     5     2     3 1   
     6     2    25 1   
     7     2    26 1   
     8     3     4 1   
     9     3    27 1   
    10     3    28 1   
    11     4     5 1   
    12     4    29 1   
    13     4    30 1   
    14     5     6 1   
    15     5    31 1   
    16     5    32 1   
    17     6     7 1   
    18     6    33 1   
    19     6    34 1   
    20     7     8 1   
    21     7    35 1   
    22     7    36 1   
    23     8     9 1   
    24     8    37 1   
    25     8    38 1   
    26     9    10 1   
    27     9    39 1   
    28     9    40 1   
    29    10    11 2   
    30    10    12 1   
    31    12    13 1   
    32    12    41 1   
    33    12    42 1   
    34    13    14 2   
    35    13    15 1   
    36    15    16 1   
    37    15    43 1   
    38    16    17 1   
    39    16    19 1   
    40    16    44 1   
    41    17    18 1   
    42    17    45 1   
    43    17    46 1   
    44    18    21 1   
    45    18    47 1   
    46    18    48 1   
    47    19    20 2   
    48    19    21 1   
@<TRIPOS>SUBSTRUCTURE
     1 OHN         1 TEMP              0 ****  ****    0 ROOT
