@<TRIPOS>MOLECULE
OHP
   18    18     1     0     0
SMALL
bcc


@<TRIPOS>ATOM
      1 C8           3.6790    -3.6740     3.2980 c          1 OHP       0.941600
      2 C7           4.0410    -2.2960     2.6900 c3         1 OHP      -0.178100
      3 C3           2.9260    -1.6350     1.9460 ca         1 OHP      -0.015300
      4 C4           1.8230    -1.1170     2.6360 ca         1 OHP       0.145100
      5 C5           0.7790    -0.5060     1.9510 ca         1 OHP      -0.237000
      6 C6           0.8160    -0.4050     0.5660 ca         1 OHP      -0.127000
      7 C1           1.8980    -0.9110    -0.1370 ca         1 OHP      -0.175000
      8 C2           2.9370    -1.5170     0.5630 ca         1 OHP      -0.115000
      9 O2           1.8290    -1.2290     3.9820 oh         1 OHP      -0.467100
     10 O9           2.6430    -4.2270     2.8920 o          1 OHP      -0.836300
     11 O10          4.4930    -4.1220     4.1300 o          1 OHP      -0.836300
     12 H71          4.4200    -1.6480     3.4850 hc         1 OHP       0.031700
     13 H72          4.8830    -2.4470     2.0070 hc         1 OHP       0.031700
     14 H5          -0.0670    -0.1050     2.4980 ha         1 OHP       0.107000
     15 H6          -0.0040     0.0720     0.0450 ha         1 OHP       0.103000
     16 H1           1.9380    -0.8350    -1.2160 ha         1 OHP       0.108000
     17 H2           3.7870    -1.9140     0.0190 ha         1 OHP       0.121000
     18 HO2          1.0310    -0.8370     4.3530 ho         1 OHP       0.397000
@<TRIPOS>BOND
     1     1     2 1   
     2     1    10 1   
     3     1    11 1   
     4     2     3 1   
     5     2    12 1   
     6     2    13 1   
     7     3     4 ar  
     8     3     8 ar  
     9     4     5 ar  
    10     4     9 1   
    11     5     6 ar  
    12     5    14 1   
    13     6     7 ar  
    14     6    15 1   
    15     7     8 ar  
    16     7    16 1   
    17     8    17 1   
    18     9    18 1   
@<TRIPOS>SUBSTRUCTURE
     1 OHP         1 TEMP              0 ****  ****    0 ROOT
