@<TRIPOS>MOLECULE
OHP
   18    18     1     0     0
SMALL
No Charge or Current Charge


@<TRIPOS>ATOM
      1 C8           3.7850    -3.8040     2.9660 c          1 OHP       0.731000
      2 C7           4.1100    -2.3210     2.7210 c3         1 OHP      -0.178100
      3 C3           2.9240    -1.6400     2.0270 ca         1 OHP      -0.015300
      4 C4           1.9170    -0.9460     2.7470 ca         1 OHP       0.145100
      5 C5           0.8490    -0.3390     2.0640 ca         1 OHP      -0.219000
      6 C6           0.7680    -0.4140     0.6650 ca         1 OHP      -0.109000
      7 C1           1.7580    -1.0980    -0.0560 ca         1 OHP      -0.157000
      8 C2           2.8290    -1.7070     0.6210 ca         1 OHP      -0.097000
      9 O2           1.9570    -0.8440     4.1090 oh         1 OHP      -0.506100
     10 O9           4.0080    -4.5970     2.0630 o          1 OHP      -0.731000
     11 O10          3.2210    -4.1130     4.0060 o          1 OHP      -0.731000
     12 H71          4.2900    -1.8120     3.6740 hc         1 OHP       0.031700
     13 H72          4.9650    -2.2380     2.0390 hc         1 OHP       0.031700
     14 H5           0.0770     0.1940     2.6140 ha         1 OHP       0.089000
     15 H6          -0.0600     0.0570     0.1390 ha         1 OHP       0.085000
     16 H1           1.6970    -1.1580    -1.1400 ha         1 OHP       0.090000
     17 H2           3.5880    -2.2360     0.0490 ha         1 OHP       0.103000
     18 HO2          1.1710    -0.3380     4.3990 ho         1 OHP       0.436000
@<TRIPOS>BOND
     1     1     2 1   
     2     1    10 1   
     3     1    11 1   
     4     2     3 1   
     5     2    12 1   
     6     2    13 1   
     7     3     4 ar  
     8     3     8 ar  
     9     4     5 ar  
    10     4     9 1   
    11     5     6 ar  
    12     5    14 1   
    13     6     7 ar  
    14     6    15 1   
    15     7     8 ar  
    16     7    16 1   
    17     8    17 1   
    18     9    18 1   
@<TRIPOS>SUBSTRUCTURE
     1 OHP         1 TEMP              0 ****  ****    0 ROOT
