@<TRIPOS>MOLECULE
OHR
   56    59     1     0     0
SMALL
abcg2


@<TRIPOS>ATOM
      1 C4         -19.6920    -6.6990     8.5520 c5         1 OHR       0.155300
      2 C1         -21.3340    -5.1170     8.0610 c5         1 OHR       0.326300
      3 C8         -22.2730    -5.1670     5.7080 cc         1 OHR       0.480700
      4 C5         -22.4250    -3.1000     5.3000 ca         1 OHR      -0.076600
      5 C2         -21.8500    -1.0120     6.8170 ca         1 OHR       0.145900
      6 C3D        -18.9660    -9.9090    -0.2070 c5         1 OHR       0.133300
      7 C4D        -19.8780   -10.2470     0.9770 c5         1 OHR       0.122300
      8 C5D        -19.1080   -10.9260     2.0960 c3         1 OHR       0.228600
      9 C9         -19.2220    -7.7720     7.5920 c3         1 OHR       0.230600
     10 C10        -22.0510    -6.3680     8.5430 c5         1 OHR      -0.156400
     11 C3         -20.9550    -7.0540     9.3470 c5         1 OHR       0.139300
     12 C6         -22.6060    -1.8000     4.7940 ca         1 OHR       0.433900
     13 C7         -21.9460    -3.1950     6.5960 ca         1 OHR       0.112500
     14 C1D        -19.8340    -7.9080     0.7860 c5         1 OHR       0.344300
     15 C2D        -18.5610    -8.4790     0.1410 c5         1 OHR       0.143300
     16 N9         -21.8640    -4.5360     6.8540 na         1 OHR      -0.280300
     17 N7         -22.6220    -4.3460     4.7630 nd         1 OHR      -0.574100
     18 N6         -23.0620    -1.5620     3.5620 nv         1 OHR      -1.083900
     19 N1         -22.3050    -0.7690     5.5910 nb         1 OHR      -0.328000
     20 N3         -21.6400    -2.1790     7.4010 nb         1 OHR      -0.210000
     21 O3D        -19.6320    -9.9150    -1.4440 oh         1 OHR      -0.692000
     22 O5D        -19.9590   -11.1710     3.1950 os         1 OHR      -0.579400
     23 O1B        -17.9740   -11.6380     4.7540 o          1 OHR      -0.852000
     24 O2B        -20.4320   -11.5370     5.6330 o          1 OHR      -0.852000
     25 O3A        -19.1340    -9.4320     4.8550 os         1 OHR      -0.729800
     26 O1A        -19.4490    -6.9650     4.6590 o          1 OHR      -0.845000
     27 O2A        -21.5640    -8.5060     4.6680 o          1 OHR      -0.845000
     28 O5         -20.2720    -8.2070     6.7640 os         1 OHR      -0.607400
     29 O4         -19.9950    -5.4950     7.8530 os         1 OHR      -0.440000
     30 O3         -20.8110    -6.4900    10.6330 oh         1 OHR      -0.739000
     31 O4D        -20.4250    -9.0110     1.4250 os         1 OHR      -0.421000
     32 O1D        -20.6540    -7.3510    -0.1840 oh         1 OHR      -0.734000
     33 O2D        -18.0690    -7.7890    -0.9640 oh         1 OHR      -0.698000
     34 PB         -19.3540   -11.0580     4.7200 p5         1 OHR       1.476800
     35 PA         -20.1750    -8.1900     5.1230 p5         1 OHR       1.466800
     36 H'4        -18.8680    -6.5100     9.2500 h1         1 OHR       0.050700
     37 H'1        -21.3940    -4.3280     8.8160 h2         1 OHR       0.067700
     38 H5R2       -22.2980    -6.2430     5.6190 h5         1 OHR       0.123800
     39 H2         -21.6220    -0.1330     7.4110 h5         1 OHR       0.021100
     40 HR'3       -18.0900   -10.5710    -0.2290 h1         1 OHR       0.035700
     41 HR'4       -20.6990   -10.9020     0.6600 h1         1 OHR       0.059700
     42 H5R1       -18.7040   -11.8700     1.7130 h1         1 OHR       0.011700
     43 H1         -18.2470   -10.3080     2.3770 h1         1 OHR       0.011700
     44 H5'1       -18.8500    -8.6160     8.1830 h1         1 OHR       0.036200
     45 H5'2       -18.3740    -7.3860     7.0190 h1         1 OHR       0.036200
     46 H'2        -22.9390    -6.1330     9.1310 hc         1 OHR       0.076200
     47 H3         -22.3560    -7.0050     7.7140 hc         1 OHR       0.076200
     48 H'3        -21.1090    -8.1380     9.4040 h1         1 OHR       0.081700
     49 HR'1       -19.6050    -7.1720     1.5660 h2         1 OHR       0.090700
     50 HR'2       -17.8090    -8.5490     0.9390 h1         1 OHR       0.059700
     51 H61        -23.1650    -0.6180     3.2320 hn         1 OHR       0.497000
     52 H62        -23.2860    -2.3160     2.9360 hn         1 OHR       0.497000
     53 HOR3       -19.8550   -10.8260    -1.6570 ho         1 OHR       0.480000
     54 HO'3       -21.6340    -6.6220    11.1150 ho         1 OHR       0.486000
     55 HOR1       -21.3070    -6.7900     0.2480 ho         1 OHR       0.506000
     56 HOR2       -17.7450    -6.9330    -0.6670 ho         1 OHR       0.494000
@<TRIPOS>BOND
     1     1     9 1   
     2     1    11 1   
     3     1    29 1   
     4     1    36 1   
     5     2    10 1   
     6     2    16 1   
     7     2    29 1   
     8     2    37 1   
     9     3    16 1   
    10     3    17 2   
    11     3    38 1   
    12     4    12 ar  
    13     4    13 ar  
    14     4    17 1   
    15     5    19 ar  
    16     5    20 ar  
    17     5    39 1   
    18     6     7 1   
    19     6    15 1   
    20     6    21 1   
    21     6    40 1   
    22     7     8 1   
    23     7    31 1   
    24     7    41 1   
    25     8    22 1   
    26     8    42 1   
    27     8    43 1   
    28     9    28 1   
    29     9    44 1   
    30     9    45 1   
    31    10    11 1   
    32    10    46 1   
    33    10    47 1   
    34    11    30 1   
    35    11    48 1   
    36    12    18 1   
    37    12    19 ar  
    38    13    16 1   
    39    13    20 ar  
    40    14    15 1   
    41    14    31 1   
    42    14    32 1   
    43    14    49 1   
    44    15    33 1   
    45    15    50 1   
    46    18    51 1   
    47    18    52 1   
    48    21    53 1   
    49    22    34 1   
    50    23    34 1   
    51    24    34 1   
    52    25    34 1   
    53    25    35 1   
    54    26    35 1   
    55    27    35 1   
    56    28    35 1   
    57    30    54 1   
    58    32    55 1   
    59    33    56 1   
@<TRIPOS>SUBSTRUCTURE
     1 OHR         1 TEMP              0 ****  ****    0 ROOT
