@<TRIPOS>MOLECULE
OHR
   56    59     1     0     0
SMALL
No Charge or Current Charge


@<TRIPOS>ATOM
      1 C4         -19.9310    -6.7300     8.6350 c5         1 OHR       0.155300
      2 C1         -21.4890    -5.0780     8.0770 c5         1 OHR       0.326300
      3 C8         -22.3900    -4.5500     5.7560 cc         1 OHR       0.480700
      4 C5         -22.4100    -2.3960     5.8520 ca         1 OHR      -0.076600
      5 C2         -21.6720    -0.6240     7.7050 ca         1 OHR       0.145900
      6 C3D        -18.7810   -10.3290    -0.4020 c5         1 OHR       0.133300
      7 C4D        -19.6230   -10.3400     0.9250 c5         1 OHR       0.122300
      8 C5D        -18.7390   -10.4520     2.2000 c3         1 OHR       0.228600
      9 C9         -19.1910    -7.8190     7.7930 c3         1 OHR       0.230600
     10 C10        -22.2840    -6.3930     8.2510 c5         1 OHR      -0.156400
     11 C3         -21.3360    -7.1370     9.2220 c5         1 OHR       0.139300
     12 C6         -22.5380    -1.0090     5.6220 ca         1 OHR       0.433900
     13 C7         -21.8960    -2.8070     7.0570 ca         1 OHR       0.112500
     14 C1D        -20.0370    -8.3090    -0.2280 c5         1 OHR       0.344300
     15 C2D        -18.5790    -8.7900    -0.5670 c5         1 OHR       0.143300
     16 N9         -21.8880    -4.1720     7.0060 na         1 OHR      -0.280300
     17 N7         -22.7290    -3.4720     5.0170 nd         1 OHR      -0.574100
     18 N6         -23.0310    -0.4930     4.4640 nv         1 OHR      -1.083900
     19 N1         -22.1660    -0.1140     6.5500 nb         1 OHR      -0.328000
     20 N3         -21.5170    -1.9340     8.0120 nb         1 OHR      -0.210000
     21 O3D        -19.5070   -10.8910    -1.5180 oh         1 OHR      -0.692000
     22 O5D        -19.5690   -10.7900     3.3170 os         1 OHR      -0.579400
     23 O1B        -17.5340   -11.1540     4.8060 o          1 OHR      -0.852000
     24 O2B        -19.7430   -11.4340     5.8070 o          1 OHR      -0.852000
     25 O3A        -18.9770    -9.1060     4.9730 os         1 OHR      -0.729800
     26 O1A        -20.3580    -7.0140     5.0950 o          1 OHR      -0.845000
     27 O2A        -21.5650    -9.1330     4.9970 o          1 OHR      -0.845000
     28 O5         -20.1160    -8.6430     7.0610 os         1 OHR      -0.607400
     29 O4         -20.1440    -5.5250     7.8520 os         1 OHR      -0.440000
     30 O3         -21.5290    -6.6630    10.5640 oh         1 OHR      -0.739000
     31 O4D        -20.3500    -9.0710     0.9490 os         1 OHR      -0.421000
     32 O1D        -20.9820    -8.6590    -1.2360 oh         1 OHR      -0.734000
     33 O2D        -18.1020    -8.4330    -1.8780 oh         1 OHR      -0.698000
     34 PB         -18.9480   -10.6720     4.7990 p5         1 OHR       1.476800
     35 PA         -20.3230    -8.4550     5.4720 p5         1 OHR       1.466800
     36 H'4        -19.2550    -6.4630     9.4580 h1         1 OHR       0.050700
     37 H'1        -21.5270    -4.4950     9.0070 h2         1 OHR       0.067700
     38 H5R2       -22.4920    -5.5870     5.4550 h5         1 OHR       0.123800
     39 H2         -21.3690     0.0940     8.4650 h5         1 OHR       0.021100
     40 HR'3       -17.8190   -10.8450    -0.2790 h1         1 OHR       0.035700
     41 HR'4       -20.3410   -11.1700     0.9250 h1         1 OHR       0.059700
     42 H5R1       -17.9900   -11.2380     2.0420 h1         1 OHR       0.011700
     43 H1         -18.2100    -9.5030     2.3660 h1         1 OHR       0.011700
     44 H5'1       -18.6200    -8.4500     8.4860 h1         1 OHR       0.036200
     45 H5'2       -18.4640    -7.3330     7.1270 h1         1 OHR       0.036200
     46 H'2        -23.2860    -6.2280     8.6620 hc         1 OHR       0.076200
     47 H3         -22.3970    -6.9390     7.3090 hc         1 OHR       0.076200
     48 H'3        -21.4900    -8.2260     9.1800 h1         1 OHR       0.081700
     49 HR'1       -20.0730    -7.2310    -0.0160 h2         1 OHR       0.090700
     50 HR'2       -17.8840    -8.4090     0.1950 h1         1 OHR       0.059700
     51 H61        -22.8280     0.4800     4.2520 hn         1 OHR       0.497000
     52 H62        -23.1120    -1.1280     3.6720 hn         1 OHR       0.497000
     53 HOR3       -19.3520   -11.8660    -1.5060 ho         1 OHR       0.480000
     54 HO'3       -22.3650    -7.0650    10.8970 ho         1 OHR       0.486000
     55 HOR1       -20.6940    -9.5790    -1.4760 ho         1 OHR       0.506000
     56 HOR2       -18.5100    -9.0940    -2.4850 ho         1 OHR       0.494000
@<TRIPOS>BOND
     1     1     9 1   
     2     1    11 1   
     3     1    29 1   
     4     1    36 1   
     5     2    10 1   
     6     2    16 1   
     7     2    29 1   
     8     2    37 1   
     9     3    16 1   
    10     3    17 2   
    11     3    38 1   
    12     4    12 ar  
    13     4    13 ar  
    14     4    17 1   
    15     5    19 ar  
    16     5    20 ar  
    17     5    39 1   
    18     6     7 1   
    19     6    15 1   
    20     6    21 1   
    21     6    40 1   
    22     7     8 1   
    23     7    31 1   
    24     7    41 1   
    25     8    22 1   
    26     8    42 1   
    27     8    43 1   
    28     9    28 1   
    29     9    44 1   
    30     9    45 1   
    31    10    11 1   
    32    10    46 1   
    33    10    47 1   
    34    11    30 1   
    35    11    48 1   
    36    12    18 1   
    37    12    19 ar  
    38    13    16 1   
    39    13    20 ar  
    40    14    15 1   
    41    14    31 1   
    42    14    32 1   
    43    14    49 1   
    44    15    33 1   
    45    15    50 1   
    46    18    51 1   
    47    18    52 1   
    48    21    53 1   
    49    22    34 1   
    50    23    34 1   
    51    24    34 1   
    52    25    34 1   
    53    25    35 1   
    54    26    35 1   
    55    27    35 1   
    56    28    35 1   
    57    30    54 1   
    58    32    55 1   
    59    33    56 1   
@<TRIPOS>SUBSTRUCTURE
     1 OHR         1 TEMP              0 ****  ****    0 ROOT
