@<TRIPOS>MOLECULE
OHS
   18    17     1     0     0
SMALL
bcc


@<TRIPOS>ATOM
      1 OXT          8.7900     2.7140    -8.1140 o          1 OHS      -0.829800
      2 C            7.9010     3.1700    -7.3700 c          1 OHS       0.929600
      3 O            6.9210     2.5550    -6.9040 o          1 OHS      -0.829800
      4 CA           7.9920     4.6750    -7.0210 c3         1 OHS       0.015500
      5 N            9.3810     5.0990    -6.9360 n8         1 OHS      -0.889800
      6 CB           7.2870     4.9750    -5.7020 c3         1 OHS      -0.089400
      7 CG           5.8040     4.7450    -5.7710 c          1 OHS       0.673100
      8 OD1          5.0840     5.1350    -6.6590 o          1 OHS      -0.575000
      9 OD2          5.3350     4.1470    -4.6800 os         1 OHS      -0.308900
     10 SE           3.6420     3.8960    -4.6380 ss         1 OHS      -0.370800
     11 CZ           3.4670     2.9360    -3.0540 c          1 OHS       1.069200
     12 OW           4.4650     2.6790    -2.4060 o          1 OHS      -0.765300
     13 OZ           2.2660     2.7080    -2.9250 o          1 OHS      -0.765300
     14 HA1          7.4470     5.2050    -7.8200 h1         1 OHS       0.013700
     15 H2           9.4450     6.1000    -7.0730 hn         1 OHS       0.317300
     16 H            9.8830     4.6690    -7.7020 hn         1 OHS       0.317300
     17 HB2          7.4250     6.0330    -5.4500 hc         1 OHS       0.043700
     18 HB3          7.7360     4.3980    -4.8940 hc         1 OHS       0.043700
@<TRIPOS>BOND
     1     1     2 1   
     2     2     3 1   
     3     2     4 1   
     4     4     5 1   
     5     4     6 1   
     6     4    14 1   
     7     5    15 1   
     8     5    16 1   
     9     6     7 1   
    10     6    17 1   
    11     6    18 1   
    12     7     8 2   
    13     7     9 1   
    14     9    10 1   
    15    10    11 1   
    16    11    12 1   
    17    11    13 1   
@<TRIPOS>SUBSTRUCTURE
     1 OHS         1 TEMP              0 ****  ****    0 ROOT
