@<TRIPOS>MOLECULE
OHS
   18    17     1     0     0
SMALL
No Charge or Current Charge


@<TRIPOS>ATOM
      1 OXT          7.5830     2.1190    -7.3250 o          1 OHS      -0.829800
      2 C            7.9090     2.9090    -6.4430 c          1 OHS       0.929600
      3 O            8.2950     2.5360    -5.3380 o          1 OHS      -0.829800
      4 CA           7.9120     4.4670    -6.7910 c3         1 OHS       0.015500
      5 N            9.2190     5.0510    -7.2780 n8         1 OHS      -0.889800
      6 CB           7.3650     5.3350    -5.6260 c3         1 OHS      -0.089400
      7 CG           5.8900     5.0240    -5.3330 c          1 OHS       0.673100
      8 OD1          4.9720     5.4170    -6.0480 o          1 OHS      -0.575000
      9 OD2          5.7180     4.4900    -4.0710 os         1 OHS      -0.308900
     10 SE           4.1070     4.3160    -3.4630 ss         1 OHS      -0.370800
     11 CZ           3.4960     2.8050    -4.3040 c          1 OHS       1.069200
     12 OW           4.2470     2.2100    -5.0670 o          1 OHS      -0.765300
     13 OZ           2.3510     2.4470    -4.0530 o          1 OHS      -0.765300
     14 HA1          7.2130     4.5900    -7.6300 h1         1 OHS       0.013700
     15 H2           9.0710     6.0200    -7.5760 hn         1 OHS       0.317300
     16 H            9.5130     4.5600    -8.1290 hn         1 OHS       0.317300
     17 HB2          7.4370     6.3920    -5.9110 hc         1 OHS       0.043700
     18 HB3          7.9740     5.1510    -4.7330 hc         1 OHS       0.043700
@<TRIPOS>BOND
     1     1     2 1   
     2     2     3 1   
     3     2     4 1   
     4     4     5 1   
     5     4     6 1   
     6     4    14 1   
     7     5    15 1   
     8     5    16 1   
     9     6     7 1   
    10     6    17 1   
    11     6    18 1   
    12     7     8 2   
    13     7     9 1   
    14     9    10 1   
    15    10    11 1   
    16    11    12 1   
    17    11    13 1   
@<TRIPOS>SUBSTRUCTURE
     1 OHS         1 TEMP              0 ****  ****    0 ROOT
