@<TRIPOS>MOLECULE
OHT
   58    60     1     0     0
SMALL
abcg2


@<TRIPOS>ATOM
      1 C10         -1.3470    -1.7880     4.2280 c3         1 OHT      -0.086100
      2 C9          -1.7010    -0.3440     3.8690 c3         1 OHT      -0.037200
      3 C8          -1.5120    -0.0500     2.3950 ce         1 OHT      -0.045400
      4 C11         -2.7480     0.0210     1.5810 ca         1 OHT      -0.049800
      5 C16         -3.7550    -0.9380     1.7040 ca         1 OHT      -0.097000
      6 C15         -4.9230    -0.8460     0.9600 ca         1 OHT      -0.114000
      7 C14         -5.1180     0.2200     0.0910 ca         1 OHT      -0.110000
      8 C13         -4.1350     1.1940    -0.0230 ca         1 OHT      -0.114000
      9 C12         -2.9650     1.0950     0.7140 ca         1 OHT      -0.097000
     10 C7          -0.2890     0.1110     1.8490 cf         1 OHT       0.009600
     11 C1           0.9340     0.2240     2.6820 ca         1 OHT      -0.086800
     12 C2           1.9670    -0.7030     2.5630 ca         1 OHT      -0.060000
     13 C3           3.1250    -0.5970     3.3180 ca         1 OHT      -0.178000
     14 C4           3.2810     0.4640     4.2070 ca         1 OHT       0.139100
     15 O4           4.3850     0.6240     4.9660 oh         1 OHT      -0.535100
     16 C5           2.2690     1.4130     4.3220 ca         1 OHT      -0.178000
     17 C6           1.1150     1.2870     3.5660 ca         1 OHT      -0.060000
     18 C17         -0.0480     0.1490     0.3890 ca         1 OHT      -0.094800
     19 C18          0.7760     1.1270    -0.1740 ca         1 OHT      -0.056500
     20 C19          1.0080     1.1780    -1.5350 ca         1 OHT      -0.179000
     21 C20          0.4350     0.2280    -2.3840 ca         1 OHT       0.148100
     22 O20          0.7110     0.3540    -3.6950 os         1 OHT      -0.328100
     23 C23          0.1330    -0.5630    -4.6070 c3         1 OHT       0.166600
     24 C24          0.5200    -0.1530    -6.0110 c3         1 OHT       0.164800
     25 N24          1.9470    -0.1570    -6.2630 n3         1 OHT      -0.700600
     26 C25          2.5100    -1.4900    -6.2490 c3         1 OHT       0.149600
     27 C26          2.2480     0.5180    -7.5070 c3         1 OHT       0.149600
     28 C21         -0.3610    -0.7760    -1.8360 ca         1 OHT      -0.179000
     29 C22         -0.5920    -0.8030    -0.4670 ca         1 OHT      -0.056500
     30 H101        -0.2980    -1.9940     4.0160 hc         1 OHT       0.034033
     31 H102        -1.5190    -1.9750     5.2880 hc         1 OHT       0.034033
     32 H103        -1.9450    -2.5030     3.6620 hc         1 OHT       0.034033
     33 H91         -2.7360    -0.1410     4.1510 hc         1 OHT       0.049200
     34 H92         -1.0920     0.3260     4.4760 hc         1 OHT       0.049200
     35 H16         -3.6250    -1.7770     2.3760 ha         1 OHT       0.115500
     36 H15         -5.6850    -1.6080     1.0630 ha         1 OHT       0.111000
     37 H14         -6.0320     0.2940    -0.4840 ha         1 OHT       0.110000
     38 H13         -4.2820     2.0390    -0.6830 ha         1 OHT       0.111000
     39 H12         -2.2110     1.8670     0.6240 ha         1 OHT       0.115500
     40 H2           1.8680    -1.5290     1.8690 ha         1 OHT       0.117500
     41 H3           3.9060    -1.3410     3.2100 ha         1 OHT       0.120500
     42 HO4          5.0150    -0.0860     4.7980 ho         1 OHT       0.464000
     43 H5           2.3900     2.2500     4.9990 ha         1 OHT       0.120500
     44 H6           0.3430     2.0420     3.6570 ha         1 OHT       0.117500
     45 H18          1.2350     1.8740     0.4620 ha         1 OHT       0.117000
     46 H19          1.6340     1.9560    -1.9540 ha         1 OHT       0.121500
     47 H231         0.4560    -1.5850    -4.3830 h1         1 OHT       0.033700
     48 H232        -0.9600    -0.5470    -4.5340 h1         1 OHT       0.033700
     49 H241        -0.0250    -0.8170    -6.7030 h1         1 OHT       0.040700
     50 H242         0.1420     0.8560    -6.1920 h1         1 OHT       0.040700
     51 H251         3.5810    -1.4380    -6.4490 h1         1 OHT       0.030700
     52 H252         2.3870    -1.9590    -5.2720 h1         1 OHT       0.030700
     53 H253         2.0610    -2.1580    -7.0010 h1         1 OHT       0.030700
     54 H261         3.3270     0.5440    -7.6640 h1         1 OHT       0.030700
     55 H262         1.7950     0.0360    -8.3880 h1         1 OHT       0.030700
     56 H263         1.8910     1.5480    -7.4720 h1         1 OHT       0.030700
     57 H21         -0.8070    -1.5450    -2.4510 ha         1 OHT       0.121500
     58 H22         -1.2120    -1.5930    -0.0620 ha         1 OHT       0.117000
@<TRIPOS>BOND
     1     1     2 1   
     2     1    30 1   
     3     1    31 1   
     4     1    32 1   
     5     2     3 1   
     6     2    33 1   
     7     2    34 1   
     8     3     4 1   
     9     3    10 2   
    10     4     5 ar  
    11     4     9 ar  
    12     5     6 ar  
    13     5    35 1   
    14     6     7 ar  
    15     6    36 1   
    16     7     8 ar  
    17     7    37 1   
    18     8     9 ar  
    19     8    38 1   
    20     9    39 1   
    21    10    11 1   
    22    10    18 1   
    23    11    12 ar  
    24    11    17 ar  
    25    12    13 ar  
    26    12    40 1   
    27    13    14 ar  
    28    13    41 1   
    29    14    15 1   
    30    14    16 ar  
    31    15    42 1   
    32    16    17 ar  
    33    16    43 1   
    34    17    44 1   
    35    18    19 ar  
    36    18    29 ar  
    37    19    20 ar  
    38    19    45 1   
    39    20    21 ar  
    40    20    46 1   
    41    21    22 1   
    42    21    28 ar  
    43    22    23 1   
    44    23    24 1   
    45    23    47 1   
    46    23    48 1   
    47    24    25 1   
    48    24    49 1   
    49    24    50 1   
    50    25    26 1   
    51    25    27 1   
    52    26    51 1   
    53    26    52 1   
    54    26    53 1   
    55    27    54 1   
    56    27    55 1   
    57    27    56 1   
    58    28    29 ar  
    59    28    57 1   
    60    29    58 1   
@<TRIPOS>SUBSTRUCTURE
     1 OHT         1 TEMP              0 ****  ****    0 ROOT
