@<TRIPOS>MOLECULE
OHT
   58    60     1     0     0
SMALL
No Charge or Current Charge


@<TRIPOS>ATOM
      1 C10         -1.2860    -1.5530     4.4870 c3         1 OHT      -0.086100
      2 C9          -1.7900    -0.1980     3.9480 c3         1 OHT      -0.037200
      3 C8          -1.5950    -0.0260     2.4400 ce         1 OHT      -0.045400
      4 C11         -2.8690    -0.0190     1.6590 ca         1 OHT      -0.049800
      5 C16         -3.7760    -1.0960     1.7450 ca         1 OHT      -0.097000
      6 C15         -4.9690    -1.0810     1.0010 ca         1 OHT      -0.114000
      7 C14         -5.2650     0.0090     0.1660 ca         1 OHT      -0.110000
      8 C13         -4.3680     1.0860     0.0770 ca         1 OHT      -0.114000
      9 C12         -3.1750     1.0720     0.8220 ca         1 OHT      -0.097000
     10 C7          -0.3510     0.1350     1.8750 cf         1 OHT       0.009600
     11 C1           0.9190     0.2030     2.6330 ca         1 OHT      -0.086800
     12 C2           1.9340    -0.7460     2.3960 ca         1 OHT      -0.060000
     13 C3           3.1470    -0.6830     3.1040 ca         1 OHT      -0.178000
     14 C4           3.3570     0.3350     4.0470 ca         1 OHT       0.139100
     15 O4           4.5290     0.4030     4.7370 oh         1 OHT      -0.535100
     16 C5           2.3580     1.2910     4.2790 ca         1 OHT      -0.178000
     17 C6           1.1450     1.2300     3.5720 ca         1 OHT      -0.060000
     18 C17         -0.0930     0.2030     0.4140 ca         1 OHT      -0.094800
     19 C18          0.8100     1.1520    -0.1110 ca         1 OHT      -0.056500
     20 C19          1.0560     1.2150    -1.4930 ca         1 OHT      -0.179000
     21 C20          0.4110     0.3320    -2.3720 ca         1 OHT       0.148100
     22 O20          0.6910     0.4430    -3.7180 os         1 OHT      -0.328100
     23 C23          0.0830    -0.4180    -4.7020 c3         1 OHT       0.166600
     24 C24          0.6070    -0.0300    -6.1120 c3         1 OHT       0.164800
     25 N24          2.0800    -0.1430    -6.3340 n3         1 OHT      -0.700600
     26 C25          2.6100    -1.5120    -6.1330 c3         1 OHT       0.149600
     27 C26          2.4950     0.4270    -7.6350 c3         1 OHT       0.149600
     28 C21         -0.4860    -0.6260    -1.8560 ca         1 OHT      -0.179000
     29 C22         -0.7320    -0.6890    -0.4730 ca         1 OHT      -0.056500
     30 H101        -0.2040    -1.6560     4.3490 hc         1 OHT       0.034033
     31 H102        -1.5000    -1.6390     5.5590 hc         1 OHT       0.034033
     32 H103        -1.7790    -2.3860     3.9730 hc         1 OHT       0.034033
     33 H91         -2.8530    -0.1060     4.2050 hc         1 OHT       0.049200
     34 H92         -1.3000     0.6080     4.5020 hc         1 OHT       0.049200
     35 H16         -3.5540    -1.9480     2.3810 ha         1 OHT       0.115500
     36 H15         -5.6620    -1.9170     1.0700 ha         1 OHT       0.111000
     37 H14         -6.1880     0.0200    -0.4100 ha         1 OHT       0.110000
     38 H13         -4.5950     1.9320    -0.5690 ha         1 OHT       0.111000
     39 H12         -2.4850     1.9090     0.7470 ha         1 OHT       0.115500
     40 H2           1.7770    -1.5380     1.6670 ha         1 OHT       0.117500
     41 H3           3.9170    -1.4270     2.9140 ha         1 OHT       0.120500
     42 HO4          5.1030    -0.3380     4.4460 ho         1 OHT       0.464000
     43 H5           2.5250     2.0860     5.0020 ha         1 OHT       0.120500
     44 H6           0.3850     1.9890     3.7440 ha         1 OHT       0.117500
     45 H18          1.3160     1.8510     0.5510 ha         1 OHT       0.117000
     46 H19          1.7500     1.9530    -1.8850 ha         1 OHT       0.121500
     47 H231         0.3130    -1.4710    -4.4960 h1         1 OHT       0.033700
     48 H232        -1.0090    -0.3000    -4.6880 h1         1 OHT       0.033700
     49 H241         0.0790    -0.6540    -6.8470 h1         1 OHT       0.040700
     50 H242         0.2900     1.0050    -6.3000 h1         1 OHT       0.040700
     51 H251         3.6960    -1.5340    -6.2970 h1         1 OHT       0.030700
     52 H252         2.4250    -1.8620    -5.1090 h1         1 OHT       0.030700
     53 H253         2.1440    -2.2200    -6.8320 h1         1 OHT       0.030700
     54 H261         3.5880     0.4100    -7.7370 h1         1 OHT       0.030700
     55 H262         2.0630    -0.1440    -8.4680 h1         1 OHT       0.030700
     56 H263         2.1650     1.4710    -7.7250 h1         1 OHT       0.030700
     57 H21         -0.9980    -1.3290    -2.5060 ha         1 OHT       0.121500
     58 H22         -1.4140    -1.4450    -0.0910 ha         1 OHT       0.117000
@<TRIPOS>BOND
     1     1     2 1   
     2     1    30 1   
     3     1    31 1   
     4     1    32 1   
     5     2     3 1   
     6     2    33 1   
     7     2    34 1   
     8     3     4 1   
     9     3    10 2   
    10     4     5 ar  
    11     4     9 ar  
    12     5     6 ar  
    13     5    35 1   
    14     6     7 ar  
    15     6    36 1   
    16     7     8 ar  
    17     7    37 1   
    18     8     9 ar  
    19     8    38 1   
    20     9    39 1   
    21    10    11 1   
    22    10    18 1   
    23    11    12 ar  
    24    11    17 ar  
    25    12    13 ar  
    26    12    40 1   
    27    13    14 ar  
    28    13    41 1   
    29    14    15 1   
    30    14    16 ar  
    31    15    42 1   
    32    16    17 ar  
    33    16    43 1   
    34    17    44 1   
    35    18    19 ar  
    36    18    29 ar  
    37    19    20 ar  
    38    19    45 1   
    39    20    21 ar  
    40    20    46 1   
    41    21    22 1   
    42    21    28 ar  
    43    22    23 1   
    44    23    24 1   
    45    23    47 1   
    46    23    48 1   
    47    24    25 1   
    48    24    49 1   
    49    24    50 1   
    50    25    26 1   
    51    25    27 1   
    52    26    51 1   
    53    26    52 1   
    54    26    53 1   
    55    27    54 1   
    56    27    55 1   
    57    27    56 1   
    58    28    29 ar  
    59    28    57 1   
    60    29    58 1   
@<TRIPOS>SUBSTRUCTURE
     1 OHT         1 TEMP              0 ****  ****    0 ROOT
