@<TRIPOS>MOLECULE
OHW
   63    66     1     0     0
SMALL
bcc


@<TRIPOS>ATOM
      1 C3         -17.4720    32.7610   -60.5750 c3         1 OHW      -0.001200
      2 C2         -16.5250    33.9010   -60.1850 c3         1 OHW      -0.072400
      3 C1         -15.8340    33.6750   -58.8490 c3         1 OHW      -0.087100
      4 N1         -16.8680    29.1790   -57.8280 n3         1 OHW      -0.732600
      5 C6         -17.5650    30.1080   -58.7070 c6         1 OHW       0.244700
      6 C5         -16.7670    30.3650   -59.9490 cc         1 OHW      -0.054300
      7 C4         -16.7750    31.4550   -60.7770 cd         1 OHW      -0.140400
      8 C7         -18.9220    29.5360   -59.1510 c6         1 OHW      -0.074400
      9 O1         -11.7000    27.3180   -59.9510 os         1 OHW      -0.395600
     10 C16        -13.4310    26.8010   -58.3440 c6         1 OHW       0.117300
     11 C17        -15.5140    29.7800   -61.6980 ca         1 OHW      -0.048200
     12 C18        -14.7250    29.1110   -62.6290 ca         1 OHW      -0.134000
     13 C15        -12.7530    26.4310   -59.6490 c6         1 OHW       0.126900
     14 C14        -12.1790    28.6410   -60.0390 c6         1 OHW       0.126900
     15 C19        -14.3830    29.8120   -63.7660 ca         1 OHW       0.098100
     16 C10        -17.6830    28.7520   -56.6990 c6         1 OHW       0.171800
     17 C9         -18.9970    28.1240   -57.1210 c6         1 OHW      -0.077400
     18 C8         -19.7830    29.1000   -57.9780 c6         1 OHW      -0.076400
     19 C13        -12.8780    29.0750   -58.7660 c6         1 OHW       0.117300
     20 O2         -13.6360    29.1670   -64.7540 os         1 OHW      -0.378900
     21 C12        -14.5800    28.5530   -57.1620 c3         1 OHW       0.161800
     22 N2         -13.9520    28.1570   -58.4140 n3         1 OHW      -0.719600
     23 C20        -12.3050    29.2340   -64.6710 c3         1 OHW       0.851700
     24 C21        -14.8130    31.1200   -64.0110 ca         1 OHW      -0.155000
     25 C22        -15.6140    31.7630   -63.0870 ca         1 OHW      -0.072000
     26 C23        -15.9700    31.1010   -61.9080 ca         1 OHW      -0.091800
     27 F1         -11.8020    28.6140   -65.7290 f          1 OHW      -0.233300
     28 F2         -11.8450    30.4870   -64.6630 f          1 OHW      -0.233300
     29 F3         -11.8190    28.6410   -63.5770 f          1 OHW      -0.233300
     30 N3         -16.0220    29.3540   -60.5080 na         1 OHW      -0.143400
     31 H1         -18.2410    32.6620   -59.8050 hc         1 OHW       0.042200
     32 H2         -18.0000    33.0390   -61.4920 hc         1 OHW       0.042200
     33 H3         -15.7740    34.0360   -60.9690 hc         1 OHW       0.039200
     34 H4         -17.0980    34.8320   -60.1500 hc         1 OHW       0.039200
     35 H5         -15.1960    34.5190   -58.5850 hc         1 OHW       0.029700
     36 H6         -16.5620    33.5440   -58.0460 hc         1 OHW       0.029700
     37 H7         -15.2060    32.7830   -58.8740 hc         1 OHW       0.029700
     38 H9         -17.7530    31.0740   -58.2060 h1         1 OHW       0.040700
     39 H10        -19.4330    30.2940   -59.7490 hc         1 OHW       0.055200
     40 H11        -18.7410    28.6810   -59.8100 hc         1 OHW       0.055200
     41 H13        -12.7120    26.6820   -57.5160 h1         1 OHW       0.043450
     42 H14        -14.4200    28.0810   -62.4880 ha         1 OHW       0.154000
     43 H15        -13.4980    26.4240   -60.4590 h1         1 OHW       0.052950
     44 H16        -12.3290    25.4280   -59.5790 h1         1 OHW       0.052950
     45 H17        -11.3230    29.2910   -60.2300 h1         1 OHW       0.052950
     46 H18        -12.8680    28.7430   -60.8850 h1         1 OHW       0.052950
     47 H19        -17.1080    28.0320   -56.1120 h1         1 OHW       0.029700
     48 H20        -17.8900    29.6020   -56.0250 h1         1 OHW       0.029700
     49 H21        -19.5570    27.8380   -56.2280 hc         1 OHW       0.049200
     50 H22        -18.8020    27.2060   -57.6840 hc         1 OHW       0.049200
     51 H23        -20.0660    29.9730   -57.3820 hc         1 OHW       0.043200
     52 H24        -20.7110    28.6500   -58.3380 hc         1 OHW       0.043200
     53 H25        -12.1390    29.1490   -57.9490 h1         1 OHW       0.043450
     54 H26        -13.2810    30.0790   -58.9220 h1         1 OHW       0.043450
     55 H27        -15.0890    27.6820   -56.7440 h1         1 OHW       0.039200
     56 H28        -13.8200    28.8440   -56.4210 h1         1 OHW       0.039200
     57 H32        -14.5340    31.6140   -64.9330 ha         1 OHW       0.148000
     58 H33        -15.9590    32.7700   -63.2830 ha         1 OHW       0.138000
     59 H34        -15.6650    28.5740   -59.9640 hn         1 OHW       0.340700
     60 C11        -15.5890    29.6800   -57.3380 c3         1 OHW       0.163800
     61 H12        -14.2550    26.1080   -58.1610 h1         1 OHW       0.043450
     62 H29        -15.1880    30.4260   -58.0280 h1         1 OHW       0.042700
     63 H30        -15.7150    30.2070   -56.3800 h1         1 OHW       0.042700
@<TRIPOS>BOND
     1     1     2 1   
     2     1     7 1   
     3     1    31 1   
     4     1    32 1   
     5     2     3 1   
     6     2    33 1   
     7     2    34 1   
     8     3    35 1   
     9     3    36 1   
    10     3    37 1   
    11     4     5 1   
    12     4    16 1   
    13     4    60 1   
    14     5     6 1   
    15     5     8 1   
    16     5    38 1   
    17     6     7 2   
    18     6    30 1   
    19     7    26 1   
    20     8    18 1   
    21     8    39 1   
    22     8    40 1   
    23     9    13 1   
    24     9    14 1   
    25    10    13 1   
    26    10    22 1   
    27    10    41 1   
    28    10    61 1   
    29    11    12 ar  
    30    11    26 ar  
    31    11    30 1   
    32    12    15 ar  
    33    12    42 1   
    34    13    43 1   
    35    13    44 1   
    36    14    19 1   
    37    14    45 1   
    38    14    46 1   
    39    15    20 1   
    40    15    24 ar  
    41    16    17 1   
    42    16    47 1   
    43    16    48 1   
    44    17    18 1   
    45    17    49 1   
    46    17    50 1   
    47    18    51 1   
    48    18    52 1   
    49    19    22 1   
    50    19    53 1   
    51    19    54 1   
    52    20    23 1   
    53    21    22 1   
    54    21    55 1   
    55    21    56 1   
    56    21    60 1   
    57    23    27 1   
    58    23    28 1   
    59    23    29 1   
    60    24    25 ar  
    61    24    57 1   
    62    25    26 ar  
    63    25    58 1   
    64    30    59 1   
    65    60    62 1   
    66    60    63 1   
@<TRIPOS>SUBSTRUCTURE
     1 OHW         1 TEMP              0 ****  ****    0 ROOT
