@<TRIPOS>MOLECULE
OHW
   63    66     1     0     0
SMALL
No Charge or Current Charge


@<TRIPOS>ATOM
      1 C3         -17.6450    32.8510   -60.5980 c3         1 OHW      -0.001200
      2 C2         -16.7740    33.9730   -59.9890 c3         1 OHW      -0.072400
      3 C1         -16.1550    33.6150   -58.6220 c3         1 OHW      -0.087100
      4 N1         -16.8090    29.2270   -57.9730 n3         1 OHW      -0.732600
      5 C6         -17.6390    30.1190   -58.8520 c6         1 OHW       0.244700
      6 C5         -16.8870    30.4150   -60.1370 cc         1 OHW      -0.054300
      7 C4         -16.8710    31.5860   -60.8910 cd         1 OHW      -0.140400
      8 C7         -18.9860    29.4550   -59.2520 c6         1 OHW      -0.074400
      9 O1         -11.5090    26.9110   -59.6530 os         1 OHW      -0.442000
     10 C16        -12.9410    26.9130   -57.6430 c6         1 OHW       0.117300
     11 C17        -15.4880    30.1320   -61.9210 ca         1 OHW      -0.048200
     12 C18        -14.5810    29.6160   -62.8550 ca         1 OHW      -0.116000
     13 C15        -12.2950    26.0650   -58.7790 c6         1 OHW       0.150100
     14 C14        -12.2920    27.9700   -60.2520 c6         1 OHW       0.150100
     15 C19        -14.1760    30.4590   -63.9230 ca         1 OHW       0.098100
     16 C10        -17.5740    28.7440   -56.7850 c6         1 OHW       0.171800
     17 C9         -18.8920    28.0380   -57.1740 c6         1 OHW      -0.077400
     18 C8         -19.7790    28.9720   -58.0210 c6         1 OHW      -0.076400
     19 C13        -12.9380    28.8570   -59.1460 c6         1 OHW       0.117300
     20 O2         -13.2790    30.0660   -64.9000 os         1 OHW      -0.402100
     21 C12        -14.3940    28.8560   -57.1070 c3         1 OHW       0.161800
     22 N2         -13.7560    28.0440   -58.1870 n3         1 OHW      -0.719600
     23 C20        -12.6380    28.7740   -64.9320 c3         1 OHW       0.511000
     24 C21        -14.6970    31.7730   -64.0170 ca         1 OHW      -0.137000
     25 C22        -15.6120    32.2620   -63.0600 ca         1 OHW      -0.054000
     26 C23        -15.9820    31.4020   -62.0190 ca         1 OHW      -0.091800
     27 F1         -11.8030    28.6830   -65.9900 f          1 OHW      -0.112000
     28 F2         -11.8950    28.5460   -63.8240 f          1 OHW      -0.112000
     29 F3         -13.5320    27.7650   -65.0500 f          1 OHW      -0.112000
     30 N3         -16.0210    29.5260   -60.8000 na         1 OHW      -0.193700
     31 H1         -18.4850    32.6430   -59.9240 hc         1 OHW       0.042200
     32 H2         -18.0940    33.2240   -61.5260 hc         1 OHW       0.042200
     33 H3         -15.9710    34.2310   -60.6890 hc         1 OHW       0.039200
     34 H4         -17.3910    34.8720   -59.8720 hc         1 OHW       0.039200
     35 H5         -15.6020    34.4720   -58.2190 hc         1 OHW       0.029700
     36 H6         -16.9350    33.3410   -57.9010 hc         1 OHW       0.029700
     37 H7         -15.4570    32.7760   -58.7180 hc         1 OHW       0.029700
     38 H9         -17.8580    31.0550   -58.3170 h1         1 OHW       0.040700
     39 H10        -19.5920    30.1660   -59.8290 hc         1 OHW       0.055200
     40 H11        -18.7930    28.6010   -59.9160 hc         1 OHW       0.055200
     41 H13        -12.1400    27.2980   -56.9940 h1         1 OHW       0.043450
     42 H14        -14.2170    28.6000   -62.7420 ha         1 OHW       0.136000
     43 H15        -13.0780    25.5640   -59.3660 h1         1 OHW       0.052950
     44 H16        -11.6450    25.2920   -58.3460 h1         1 OHW       0.052950
     45 H17        -11.6420    28.5830   -60.8920 h1         1 OHW       0.052950
     46 H18        -13.0760    27.5270   -60.8840 h1         1 OHW       0.052950
     47 H19        -16.9710    28.0370   -56.1990 h1         1 OHW       0.029700
     48 H20        -17.8110    29.5890   -56.1220 h1         1 OHW       0.029700
     49 H21        -19.4300    27.7280   -56.2680 hc         1 OHW       0.049200
     50 H22        -18.6670    27.1210   -57.7370 hc         1 OHW       0.049200
     51 H23        -20.0980    29.8340   -57.4190 hc         1 OHW       0.043200
     52 H24        -20.6910    28.4480   -58.3380 hc         1 OHW       0.043200
     53 H25        -12.1340    29.3830   -58.6090 h1         1 OHW       0.043450
     54 H26        -13.5480    29.6270   -59.6350 h1         1 OHW       0.043450
     55 H27        -14.8220    28.1900   -56.3480 h1         1 OHW       0.039200
     56 H28        -13.6170    29.4400   -56.5960 h1         1 OHW       0.039200
     57 H32        -14.3850    32.4140   -64.8370 ha         1 OHW       0.130000
     58 H33        -16.0120    33.2700   -63.1290 ha         1 OHW       0.120000
     59 H34        -15.7780    28.6070   -60.4460 hn         1 OHW       0.391000
     60 C11        -15.5070    29.8500   -57.5670 c3         1 OHW       0.163800
     61 H12        -13.5680    26.2540   -57.0260 h1         1 OHW       0.043450
     62 H29        -15.0870    30.4580   -58.3760 h1         1 OHW       0.042700
     63 H30        -15.6900    30.5510   -56.7410 h1         1 OHW       0.042700
@<TRIPOS>BOND
     1     1     2 1   
     2     1     7 1   
     3     1    31 1   
     4     1    32 1   
     5     2     3 1   
     6     2    33 1   
     7     2    34 1   
     8     3    35 1   
     9     3    36 1   
    10     3    37 1   
    11     4     5 1   
    12     4    16 1   
    13     4    60 1   
    14     5     6 1   
    15     5     8 1   
    16     5    38 1   
    17     6     7 2   
    18     6    30 1   
    19     7    26 1   
    20     8    18 1   
    21     8    39 1   
    22     8    40 1   
    23     9    13 1   
    24     9    14 1   
    25    10    13 1   
    26    10    22 1   
    27    10    41 1   
    28    10    61 1   
    29    11    12 ar  
    30    11    26 ar  
    31    11    30 1   
    32    12    15 ar  
    33    12    42 1   
    34    13    43 1   
    35    13    44 1   
    36    14    19 1   
    37    14    45 1   
    38    14    46 1   
    39    15    20 1   
    40    15    24 ar  
    41    16    17 1   
    42    16    47 1   
    43    16    48 1   
    44    17    18 1   
    45    17    49 1   
    46    17    50 1   
    47    18    51 1   
    48    18    52 1   
    49    19    22 1   
    50    19    53 1   
    51    19    54 1   
    52    20    23 1   
    53    21    22 1   
    54    21    55 1   
    55    21    56 1   
    56    21    60 1   
    57    23    27 1   
    58    23    28 1   
    59    23    29 1   
    60    24    25 ar  
    61    24    57 1   
    62    25    26 ar  
    63    25    58 1   
    64    30    59 1   
    65    60    62 1   
    66    60    63 1   
@<TRIPOS>SUBSTRUCTURE
     1 OHW         1 TEMP              0 ****  ****    0 ROOT
