@<TRIPOS>MOLECULE
OHY
   69    73     1     0     0
SMALL
abcg2


@<TRIPOS>ATOM
      1 C29          3.8020    -2.1960    -2.2960 c3         1 OHY      -0.087100
      2 C28          2.6280    -2.9660    -1.6920 c3         1 OHY      -0.017400
      3 C30          2.5270    -4.3730    -2.2790 c3         1 OHY      -0.087100
      4 C11          2.7250    -3.0180    -0.1850 ca         1 OHY      -0.042300
      5 C12          3.8270    -3.6230     0.4200 ca         1 OHY      -0.106000
      6 C13          3.9570    -3.6940     1.7980 ca         1 OHY      -0.101000
      7 C14          2.9740    -3.1570     2.6190 ca         1 OHY      -0.111000
      8 C15          1.8680    -2.5570     2.0430 ca         1 OHY      -0.096000
      9 C10          1.7480    -2.4940     0.6600 ca         1 OHY       0.032600
     10 N2           0.5910    -1.8460     0.1290 n          1 OHY      -0.240200
     11 C2           0.5930    -0.4870    -0.0860 ca         1 OHY       0.131600
     12 C3           1.7470     0.2830     0.0950 ca         1 OHY      -0.140000
     13 C9          -0.4900    -2.6410    -0.2410 c          1 OHY       0.722400
     14 O1          -0.3940    -3.8540    -0.1830 o          1 OHY      -0.511000
     15 N1          -1.6470    -2.0250    -0.5990 nc         1 OHY      -0.748100
     16 C8          -1.7510    -0.7300    -0.6720 cd         1 OHY       0.777800
     17 N3          -2.9640    -0.1910    -0.9440 nh         1 OHY      -0.735600
     18 C24         -4.0320    -1.0470    -1.4410 c6         1 OHY       0.193300
     19 C23         -4.9740    -1.4890    -0.3330 c6         1 OHY       0.069500
     20 C21         -3.4840     0.9700    -0.2280 c6         1 OHY       0.193300
     21 C22         -4.4400     0.5290     0.8790 c6         1 OHY       0.069500
     22 N4          -5.4880    -0.3240     0.3630 n          1 OHY      -0.420800
     23 C25         -6.8190    -0.0870     0.4570 c          1 OHY       0.607100
     24 O3          -7.6420    -0.8550    -0.0210 o          1 OHY      -0.595100
     25 C26         -7.2550     1.1700     1.1880 c3         1 OHY      -0.153400
     26 C27         -8.7640     1.3330     1.2350 c3         1 OHY      -0.077100
     27 C1          -0.5790     0.1260    -0.5440 ca         1 OHY      -0.265900
     28 C6          -0.5360     1.4620    -0.9490 ca         1 OHY      -0.038000
     29 C5           0.6150     2.1970    -0.7910 ca         1 OHY       0.089000
     30 CL1          0.6430     3.8480    -1.3000 cl         1 OHY      -0.189000
     31 C4           1.7660     1.6220    -0.2410 cp         1 OHY       0.057000
     32 C7           2.9950     2.4170    -0.0380 cp         1 OHY      -0.140000
     33 C20          4.0620     2.3320    -0.9160 ca         1 OHY       0.232000
     34 F1           3.9390     1.5120    -1.9700 f          1 OHY      -0.168000
     35 C19          5.2300     3.0510    -0.7610 ca         1 OHY      -0.192000
     36 C18          5.3200     3.9020     0.3300 ca         1 OHY      -0.032000
     37 C17          4.2770     4.0260     1.2340 ca         1 OHY      -0.227000
     38 C16          3.1120     3.2860     1.0490 ca         1 OHY       0.190100
     39 O2           2.0620     3.3550     1.8800 oh         1 OHY      -0.519100
     40 H1           3.7100    -2.1570    -3.3820 hc         1 OHY       0.038033
     41 H2           3.8370    -1.1700    -1.9290 hc         1 OHY       0.038033
     42 H3           4.7580    -2.6680    -2.0620 hc         1 OHY       0.038033
     43 H4           1.7170    -2.4350    -1.9730 hc         1 OHY       0.056700
     44 H5           3.4320    -4.9550    -2.0950 hc         1 OHY       0.038033
     45 H6           1.6830    -4.9150    -1.8520 hc         1 OHY       0.038033
     46 H7           2.3810    -4.3240    -3.3590 hc         1 OHY       0.038033
     47 H8           4.6060    -4.0520    -0.1990 ha         1 OHY       0.117000
     48 H9           4.8280    -4.1680     2.2310 ha         1 OHY       0.115000
     49 H10          3.0670    -3.2060     3.6950 ha         1 OHY       0.117000
     50 H11          1.0880    -2.1310     2.6620 ha         1 OHY       0.122000
     51 H12          2.6470    -0.1640     0.4930 ha         1 OHY       0.143000
     52 H13         -4.5920    -0.4680    -2.1810 h1         1 OHY       0.070700
     53 H14         -3.6080    -1.9120    -1.9420 h1         1 OHY       0.070700
     54 H15         -5.7980    -2.0580    -0.7540 h1         1 OHY       0.067450
     55 H16         -4.4440    -2.1340     0.3740 h1         1 OHY       0.067450
     56 H17         -2.6840     1.5370     0.2370 h1         1 OHY       0.070700
     57 H18         -3.9990     1.6270    -0.9330 h1         1 OHY       0.070700
     58 H19         -3.8740    -0.0130     1.6440 h1         1 OHY       0.067450
     59 H20         -4.8460     1.4190     1.3510 h1         1 OHY       0.067450
     60 H21         -6.8550     1.1510     2.2060 hc         1 OHY       0.053200
     61 H22         -6.8060     2.0450     0.7110 hc         1 OHY       0.053200
     62 H23         -9.2470     0.4980     1.7410 hc         1 OHY       0.043033
     63 H24         -9.0170     2.2420     1.7790 hc         1 OHY       0.043033
     64 H25         -9.1940     1.4150     0.2370 hc         1 OHY       0.043033
     65 H26         -1.3960     1.9200    -1.4140 ha         1 OHY       0.137000
     66 H27          6.0370     2.9520    -1.4740 ha         1 OHY       0.139000
     67 H28          6.2220     4.4810     0.4800 ha         1 OHY       0.120000
     68 H29          4.3660     4.6970     2.0790 ha         1 OHY       0.121000
     69 H30          2.2380     3.9760     2.5960 ho         1 OHY       0.470000
@<TRIPOS>BOND
     1     1     2 1   
     2     1    40 1   
     3     1    41 1   
     4     1    42 1   
     5     2     3 1   
     6     2     4 1   
     7     2    43 1   
     8     3    44 1   
     9     3    45 1   
    10     3    46 1   
    11     4     5 ar  
    12     4     9 ar  
    13     5     6 ar  
    14     5    47 1   
    15     6     7 ar  
    16     6    48 1   
    17     7     8 ar  
    18     7    49 1   
    19     8     9 ar  
    20     8    50 1   
    21     9    10 1   
    22    10    11 1   
    23    10    13 1   
    24    11    12 ar  
    25    11    27 ar  
    26    12    31 ar  
    27    12    51 1   
    28    13    14 2   
    29    13    15 1   
    30    15    16 2   
    31    16    17 1   
    32    16    27 1   
    33    17    18 1   
    34    17    20 1   
    35    18    19 1   
    36    18    52 1   
    37    18    53 1   
    38    19    22 1   
    39    19    54 1   
    40    19    55 1   
    41    20    21 1   
    42    20    56 1   
    43    20    57 1   
    44    21    22 1   
    45    21    58 1   
    46    21    59 1   
    47    22    23 1   
    48    23    24 2   
    49    23    25 1   
    50    25    26 1   
    51    25    60 1   
    52    25    61 1   
    53    26    62 1   
    54    26    63 1   
    55    26    64 1   
    56    27    28 ar  
    57    28    29 ar  
    58    28    65 1   
    59    29    30 1   
    60    29    31 ar  
    61    31    32 1   
    62    32    33 ar  
    63    32    38 ar  
    64    33    34 1   
    65    33    35 ar  
    66    35    36 ar  
    67    35    66 1   
    68    36    37 ar  
    69    36    67 1   
    70    37    38 ar  
    71    37    68 1   
    72    38    39 1   
    73    39    69 1   
@<TRIPOS>SUBSTRUCTURE
     1 OHY         1 TEMP              0 ****  ****    0 ROOT
