@<TRIPOS>MOLECULE
OHY
   69    73     1     0     0
SMALL
No Charge or Current Charge


@<TRIPOS>ATOM
      1 C29          3.8680    -1.6550    -1.9900 c3         1 OHY      -0.087100
      2 C28          2.7080    -2.5350    -1.4630 c3         1 OHY      -0.017400
      3 C30          2.6080    -3.8620    -2.2470 c3         1 OHY      -0.087100
      4 C11          2.8150    -2.8010     0.0520 ca         1 OHY      -0.042300
      5 C12          3.9810    -3.4250     0.5510 ca         1 OHY      -0.106000
      6 C13          4.0980    -3.7620     1.9080 ca         1 OHY      -0.101000
      7 C14          3.0420    -3.4970     2.7900 ca         1 OHY      -0.111000
      8 C15          1.8740    -2.8840     2.3140 ca         1 OHY      -0.096000
      9 C10          1.7530    -2.5150     0.9590 ca         1 OHY       0.032600
     10 N2           0.5300    -1.8760     0.5450 n          1 OHY      -0.240200
     11 C2           0.5970    -0.5150     0.0920 ca         1 OHY       0.131600
     12 C3           1.7780     0.2540     0.1580 ca         1 OHY      -0.140000
     13 C9          -0.6780    -2.6030     0.4870 c          1 OHY       0.722400
     14 O1          -0.7400    -3.7680     0.8460 o          1 OHY      -0.511000
     15 N1          -1.8070    -1.9930     0.0110 nc         1 OHY      -0.748100
     16 C8          -1.7880    -0.7590    -0.4180 cd         1 OHY       0.777800
     17 N3          -3.0080    -0.2000    -0.7900 nh         1 OHY      -0.735600
     18 C24         -4.0380    -1.0270    -1.4920 c6         1 OHY       0.193300
     19 C23         -5.1110    -1.5670    -0.5070 c6         1 OHY       0.069500
     20 C21         -3.5950     0.8760     0.0640 c6         1 OHY       0.193300
     21 C22         -4.6680     0.3110     1.0350 c6         1 OHY       0.069500
     22 N4          -5.7100    -0.4690     0.3040 n          1 OHY      -0.420800
     23 C25         -7.0500    -0.0480     0.1300 c          1 OHY       0.607100
     24 O3          -7.7720    -0.6010    -0.6910 o          1 OHY      -0.595100
     25 C26         -7.5940     1.0910     1.0180 c3         1 OHY      -0.153400
     26 C27         -9.1100     1.3740     0.9020 c3         1 OHY      -0.077100
     27 C1          -0.5710     0.0580    -0.4250 ca         1 OHY      -0.265900
     28 C6          -0.5300     1.3670    -0.9600 ca         1 OHY      -0.038000
     29 C5           0.6580     2.1130    -0.9300 ca         1 OHY       0.089000
     30 Cl1          0.6380     3.7490    -1.5920 cl         1 OHY      -0.189000
     31 C4           1.8320     1.5670    -0.3580 cp         1 OHY       0.057000
     32 C7           3.1140     2.3260    -0.3120 cp         1 OHY      -0.140000
     33 C20          3.8560     2.5560    -1.4950 ca         1 OHY       0.232000
     34 F1           3.4100     2.0800    -2.6790 f          1 OHY      -0.168000
     35 C19          5.0690     3.2610    -1.4660 ca         1 OHY      -0.192000
     36 C18          5.5670     3.7510    -0.2490 ca         1 OHY      -0.032000
     37 C17          4.8470     3.5280     0.9360 ca         1 OHY      -0.227000
     38 C16          3.6340     2.8210     0.9090 ca         1 OHY       0.190100
     39 O2           2.9610     2.6270     2.0790 oh         1 OHY      -0.519100
     40 H1           3.7000    -1.3900    -3.0410 hc         1 OHY       0.038033
     41 H2           3.9450    -0.7240    -1.4180 hc         1 OHY       0.038033
     42 H3           4.8290    -2.1770    -1.9240 hc         1 OHY       0.038033
     43 H4           1.7870    -1.9900    -1.6920 hc         1 OHY       0.056700
     44 H5           3.5180    -4.4620    -2.1290 hc         1 OHY       0.038033
     45 H6           1.7580    -4.4540    -1.8880 hc         1 OHY       0.038033
     46 H7           2.4600    -3.6700    -3.3160 hc         1 OHY       0.038033
     47 H8           4.8010    -3.6680    -0.1200 ha         1 OHY       0.117000
     48 H9           5.0030    -4.2430     2.2730 ha         1 OHY       0.115000
     49 H10          3.1270    -3.7670     3.8400 ha         1 OHY       0.117000
     50 H11          1.0600    -2.6770     3.0050 ha         1 OHY       0.122000
     51 H12          2.6800    -0.1550     0.6000 ha         1 OHY       0.143000
     52 H13         -4.5400    -0.4160    -2.2560 h1         1 OHY       0.070700
     53 H14         -3.5730    -1.8720    -2.0200 h1         1 OHY       0.070700
     54 H15         -5.8810    -2.1110    -1.0720 h1         1 OHY       0.067450
     55 H16         -4.6410    -2.2930     0.1720 h1         1 OHY       0.067450
     56 H17         -2.8170     1.3810     0.6560 h1         1 OHY       0.070700
     57 H18         -4.0600     1.6430    -0.5730 h1         1 OHY       0.070700
     58 H19         -4.1740    -0.3550     1.7570 h1         1 OHY       0.067450
     59 H20         -5.0970     1.1380     1.6140 h1         1 OHY       0.067450
     60 H21         -7.3050     0.8840     2.0550 hc         1 OHY       0.053200
     61 H22         -7.0110     1.9930     0.8020 hc         1 OHY       0.053200
     62 H23         -9.6930     0.4860     1.1760 hc         1 OHY       0.043033
     63 H24         -9.3980     2.1930     1.5730 hc         1 OHY       0.043033
     64 H25         -9.3750     1.6620    -0.1220 hc         1 OHY       0.043033
     65 H26         -1.4140     1.8160    -1.4070 ha         1 OHY       0.137000
     66 H27          5.6210     3.4230    -2.3870 ha         1 OHY       0.139000
     67 H28          6.5080     4.2980    -0.2240 ha         1 OHY       0.120000
     68 H29          5.2420     3.9100     1.8750 ha         1 OHY       0.121000
     69 H30          3.4730     3.0480     2.8000 ho         1 OHY       0.470000
@<TRIPOS>BOND
     1     1     2 1   
     2     1    40 1   
     3     1    41 1   
     4     1    42 1   
     5     2     3 1   
     6     2     4 1   
     7     2    43 1   
     8     3    44 1   
     9     3    45 1   
    10     3    46 1   
    11     4     5 ar  
    12     4     9 ar  
    13     5     6 ar  
    14     5    47 1   
    15     6     7 ar  
    16     6    48 1   
    17     7     8 ar  
    18     7    49 1   
    19     8     9 ar  
    20     8    50 1   
    21     9    10 1   
    22    10    11 1   
    23    10    13 1   
    24    11    12 ar  
    25    11    27 ar  
    26    12    31 ar  
    27    12    51 1   
    28    13    14 2   
    29    13    15 1   
    30    15    16 2   
    31    16    17 1   
    32    16    27 1   
    33    17    18 1   
    34    17    20 1   
    35    18    19 1   
    36    18    52 1   
    37    18    53 1   
    38    19    22 1   
    39    19    54 1   
    40    19    55 1   
    41    20    21 1   
    42    20    56 1   
    43    20    57 1   
    44    21    22 1   
    45    21    58 1   
    46    21    59 1   
    47    22    23 1   
    48    23    24 2   
    49    23    25 1   
    50    25    26 1   
    51    25    60 1   
    52    25    61 1   
    53    26    62 1   
    54    26    63 1   
    55    26    64 1   
    56    27    28 ar  
    57    28    29 ar  
    58    28    65 1   
    59    29    30 1   
    60    29    31 ar  
    61    31    32 1   
    62    32    33 ar  
    63    32    38 ar  
    64    33    34 1   
    65    33    35 ar  
    66    35    36 ar  
    67    35    66 1   
    68    36    37 ar  
    69    36    67 1   
    70    37    38 ar  
    71    37    68 1   
    72    38    39 1   
    73    39    69 1   
@<TRIPOS>SUBSTRUCTURE
     1 OHY         1 TEMP              0 ****  ****    0 ROOT
