@<TRIPOS>MOLECULE
OHZ
   39    40     1     0     0
SMALL
No Charge or Current Charge


@<TRIPOS>ATOM
      1 C1         -47.7960    27.6380    14.0050 ca         1 OHZ       0.023000
      2 C2         -46.6710    28.4820    13.9940 ca         1 OHZ      -0.169000
      3 C3         -46.7140    29.7370    14.6170 ca         1 OHZ       0.157000
      4 C4         -47.8820    30.1640    15.2600 ca         1 OHZ      -0.129000
      5 C5         -49.0160    29.3400    15.2870 ca         1 OHZ       0.131100
      6 C6         -51.3800    29.1210    16.0680 c3         1 OHZ       0.516000
      7 C7         -48.9720    28.0730    14.6590 ca         1 OHZ      -0.134000
      8 C9         -49.7040    22.5080    12.4770 ca         1 OHZ      -0.098000
      9 C10        -50.1630    21.2560    12.0340 ca         1 OHZ      -0.095000
     10 C11        -49.4080    20.5170    11.1140 ca         1 OHZ      -0.112000
     11 C12        -48.1900    21.0260    10.6400 ca         1 OHZ      -0.095000
     12 C14        -46.3830    22.7930    10.5260 c3         1 OHZ      -0.032100
     13 F2         -51.2360    27.9500    16.7320 f          1 OHZ      -0.106333
     14 F          -52.2780    29.8560    16.7600 f          1 OHZ      -0.106333
     15 F1         -51.9350    28.8530    14.8640 f          1 OHZ      -0.106333
     16 O1         -50.1310    29.8310    15.9440 os         1 OHZ      -0.403100
     17 Cl         -45.2970    30.7770    14.5910 cl         1 OHZ      -0.185000
     18 N          -47.6730    26.3800    13.3520 ns         1 OHZ      -0.163000
     19 C          -48.5780    25.3570    13.1140 c          1 OHZ       0.668100
     20 O          -49.7570    25.3860    13.4470 o          1 OHZ      -0.598100
     21 N1         -47.9850    24.3030    12.4330 ns         1 OHZ      -0.180000
     22 C8         -48.4830    23.0380    12.0000 ca         1 OHZ      -0.027000
     23 C13        -47.7160    22.2800    11.0780 ca         1 OHZ      -0.103300
     24 C15        -46.5740    23.8070     9.3790 c3         1 OHZ       0.161600
     25 O2         -45.2990    24.2650     8.9140 oh         1 OHZ      -0.668000
     26 H1         -45.7550    28.1670    13.5000 ha         1 OHZ       0.130000
     27 H2         -47.9100    31.1380    15.7410 ha         1 OHZ       0.153000
     28 H3         -49.8420    27.4310    14.6820 ha         1 OHZ       0.174000
     29 H4         -50.3080    23.0430    13.2020 ha         1 OHZ       0.131000
     30 H5         -51.1040    20.8590    12.4080 ha         1 OHZ       0.120000
     31 H6         -49.7640    19.5480    10.7700 ha         1 OHZ       0.118000
     32 H7         -47.6120    20.4420     9.9270 ha         1 OHZ       0.116000
     33 H8         -45.7820    21.9540    10.1530 hc         1 OHZ       0.053700
     34 H9         -45.7840    23.2500    11.3220 hc         1 OHZ       0.053700
     35 H10        -46.7430    26.2000    12.9970 hn         1 OHZ       0.151000
     36 H11        -47.0130    24.4550    12.2030 hn         1 OHZ       0.155000
     37 H12        -47.1750    24.6540     9.7370 h1         1 OHZ       0.026200
     38 H13        -47.1280    23.3240     8.5620 h1         1 OHZ       0.026200
     39 H14        -45.4710    24.8850     8.1700 ho         1 OHZ       0.447000
@<TRIPOS>BOND
     1     1     2 ar  
     2     1     7 ar  
     3     1    18 1   
     4     2     3 ar  
     5     2    26 1   
     6     3     4 ar  
     7     3    17 1   
     8     4     5 ar  
     9     4    27 1   
    10     5     7 ar  
    11     5    16 1   
    12     6    13 1   
    13     6    14 1   
    14     6    15 1   
    15     6    16 1   
    16     7    28 1   
    17     8     9 ar  
    18     8    22 ar  
    19     8    29 1   
    20     9    10 ar  
    21     9    30 1   
    22    10    11 ar  
    23    10    31 1   
    24    11    23 ar  
    25    11    32 1   
    26    12    23 1   
    27    12    24 1   
    28    12    33 1   
    29    12    34 1   
    30    18    19 1   
    31    18    35 1   
    32    19    20 2   
    33    19    21 1   
    34    21    22 1   
    35    21    36 1   
    36    22    23 ar  
    37    24    25 1   
    38    24    37 1   
    39    24    38 1   
    40    25    39 1   
@<TRIPOS>SUBSTRUCTURE
     1 OHZ         1 TEMP              0 ****  ****    0 ROOT
