@<TRIPOS>MOLECULE
OHZ
   39    40     1     0     0
SMALL
abcg2


@<TRIPOS>ATOM
      1 C1         -47.7390    27.3440    14.0830 ca         1 OHZ       0.023000
      2 C2         -46.6590    28.1550    14.4460 ca         1 OHZ      -0.169000
      3 C3         -46.8830    29.4370    14.9030 ca         1 OHZ       0.157000
      4 C4         -48.1590    29.9630    15.0270 ca         1 OHZ      -0.129000
      5 C5         -49.2070    29.1360    14.6670 ca         1 OHZ       0.131100
      6 C6         -51.1920    29.4790    15.8580 c3         1 OHZ       0.516000
      7 C7         -49.0380    27.8460    14.2000 ca         1 OHZ      -0.134000
      8 C9         -49.4080    22.3140    12.7080 ca         1 OHZ      -0.098000
      9 C10        -50.0170    21.2240    12.1060 ca         1 OHZ      -0.095000
     10 C11        -49.4730    20.6770    10.9530 ca         1 OHZ      -0.112000
     11 C12        -48.3230    21.2290    10.4090 ca         1 OHZ      -0.095000
     12 C14        -46.4980    22.9490    10.3280 c3         1 OHZ      -0.032100
     13 F2         -50.5870    30.0190    16.9160 f          1 OHZ      -0.106333
     14 F          -52.3650    30.0690    15.7000 f          1 OHZ      -0.106333
     15 F1         -51.4030    28.1940    16.1460 f          1 OHZ      -0.106333
     16 O1         -50.4970    29.6480    14.7240 os         1 OHZ      -0.403100
     17 CL         -45.5280    30.4220    15.3300 cl         1 OHZ      -0.185000
     18 N          -47.4310    26.0660    13.6440 ns         1 OHZ      -0.163000
     19 C          -48.2710    25.1370    13.0770 c          1 OHZ       0.668100
     20 O          -49.4540    25.3310    12.8650 o          1 OHZ      -0.598100
     21 N1         -47.6340    23.9720    12.7740 ns         1 OHZ      -0.180000
     22 C8         -48.2640    22.8770    12.1480 ca         1 OHZ      -0.027000
     23 C13        -47.7050    22.3370    10.9840 ca         1 OHZ      -0.103300
     24 C15        -46.8910    24.1320     9.4530 c3         1 OHZ       0.161600
     25 O2         -45.7190    24.6830     8.8950 oh         1 OHZ      -0.668000
     26 H1         -45.6470    27.7820    14.3560 ha         1 OHZ       0.130000
     27 H2         -48.3260    30.9750    15.3670 ha         1 OHZ       0.153000
     28 H3         -49.8950    27.2570    13.9200 ha         1 OHZ       0.174000
     29 H4         -49.8120    22.7200    13.6250 ha         1 OHZ       0.131000
     30 H5         -50.9060    20.7950    12.5490 ha         1 OHZ       0.120000
     31 H6         -49.9370    19.8200    10.4820 ha         1 OHZ       0.118000
     32 H7         -47.8960    20.7990     9.5100 ha         1 OHZ       0.116000
     33 H8         -46.0010    22.1980     9.7110 hc         1 OHZ       0.053700
     34 H9         -45.7630    23.2750    11.0670 hc         1 OHZ       0.053700
     35 H10        -46.4530    25.8280    13.7020 hn         1 OHZ       0.151000
     36 H11        -46.6410    23.9020    12.9310 hn         1 OHZ       0.155000
     37 H12        -47.4370    24.8710    10.0530 h1         1 OHZ       0.026200
     38 H13        -47.5840    23.7830     8.6770 h1         1 OHZ       0.026200
     39 H14        -45.9690    25.4460     8.3670 ho         1 OHZ       0.447000
@<TRIPOS>BOND
     1     1     2 ar  
     2     1     7 ar  
     3     1    18 1   
     4     2     3 ar  
     5     2    26 1   
     6     3     4 ar  
     7     3    17 1   
     8     4     5 ar  
     9     4    27 1   
    10     5     7 ar  
    11     5    16 1   
    12     6    13 1   
    13     6    14 1   
    14     6    15 1   
    15     6    16 1   
    16     7    28 1   
    17     8     9 ar  
    18     8    22 ar  
    19     8    29 1   
    20     9    10 ar  
    21     9    30 1   
    22    10    11 ar  
    23    10    31 1   
    24    11    23 ar  
    25    11    32 1   
    26    12    23 1   
    27    12    24 1   
    28    12    33 1   
    29    12    34 1   
    30    18    19 1   
    31    18    35 1   
    32    19    20 2   
    33    19    21 1   
    34    21    22 1   
    35    21    36 1   
    36    22    23 ar  
    37    24    25 1   
    38    24    37 1   
    39    24    38 1   
    40    25    39 1   
@<TRIPOS>SUBSTRUCTURE
     1 OHZ         1 TEMP              0 ****  ****    0 ROOT
