@<TRIPOS>MOLECULE
OI2
   64    64     1     0     0
SMALL
No Charge or Current Charge


@<TRIPOS>ATOM
      1 C14         62.4900    49.4090    34.9200 c3         1 OI2      -0.087100
      2 C13         63.9470    49.2600    34.4250 c3         1 OI2      -0.060700
      3 C15         64.9160    49.0970    35.6220 c3         1 OI2      -0.087100
      4 C17         63.3640    48.7340    28.8360 ce         1 OI2      -0.140200
      5 C10         68.3360    46.0310    33.1520 c3         1 OI2      -0.081100
      6 C12         64.0620    48.1080    33.3900 c3         1 OI2      -0.077400
      7 C11         65.4400    47.9940    32.6850 c3         1 OI2      -0.034200
      8 C01         65.7620    45.1870    29.2880 c6         1 OI2      -0.069400
      9 C02         64.4640    45.9830    29.4350 c6         1 OI2      -0.041200
     10 C03         64.6850    47.1870    30.3730 cf         1 OI2      -0.073200
     11 C04         65.4790    46.9050    31.6030 cf         1 OI2      -0.060200
     12 C05         66.1830    45.7300    31.7610 c2         1 OI2      -0.107400
     13 C06         66.1980    44.6600    30.6600 c6         1 OI2      -0.038200
     14 C07         66.9990    45.2670    32.9900 c3         1 OI2      -0.020500
     15 C08         66.1890    45.1380    34.3120 c3         1 OI2      -0.067400
     16 C09         64.9030    44.2960    34.1740 c3         1 OI2      -0.091100
     17 C18         62.1170    48.2180    28.6270 cf         1 OI2      -0.122000
     18 C19         61.4150    47.2970    29.5150 cf         1 OI2      -0.275000
     19 C20         60.2010    46.7380    29.2480 ce         1 OI2      -0.099000
     20 C21         59.4370    45.8110    30.1110 ce         1 OI2      -0.153200
     21 C22         58.0970    45.6240    29.8650 cf         1 OI2      -0.195200
     22 C23         57.0980    44.7620    30.5820 c          1 OI2       0.696200
     23 C26         60.2210    45.0620    31.1890 c3         1 OI2      -0.039900
     24 C27         63.9540    49.7670    27.8930 c3         1 OI2      -0.037900
     25 O24         55.9620    44.7550    30.1350 o          1 OI2      -0.721000
     26 O25         57.4180    44.1330    31.5780 o          1 OI2      -0.721000
     27 H1          62.3990    50.2570    35.6090 hc         1 OI2       0.029867
     28 H2          61.8100    49.5860    34.0790 hc         1 OI2       0.029867
     29 H3          62.1610    48.5040    35.4440 hc         1 OI2       0.029867
     30 H4          64.2100    50.1950    33.9140 hc         1 OI2       0.039700
     31 H5          64.7630    49.8990    36.3540 hc         1 OI2       0.029867
     32 H6          64.7530    48.1370    36.1280 hc         1 OI2       0.029867
     33 H7          65.9620    49.1440    35.2980 hc         1 OI2       0.029867
     34 H8          64.4000    49.2850    30.6370 ha         1 OI2       0.162000
     35 H9          68.9550    45.5550    33.9230 hc         1 OI2       0.029033
     36 H10         68.9000    46.0110    32.2120 hc         1 OI2       0.029033
     37 H11         68.1960    47.0760    33.4390 hc         1 OI2       0.029033
     38 H12         63.2870    48.2480    32.6280 hc         1 OI2       0.052200
     39 H13         63.8310    47.1570    33.8830 hc         1 OI2       0.052200
     40 H14         66.2000    47.8320    33.4450 hc         1 OI2       0.038200
     41 H15         65.7200    48.9660    32.2660 hc         1 OI2       0.038200
     42 H16         65.6220    44.3510    28.5890 hc         1 OI2       0.037200
     43 H17         66.5460    45.8300    28.8670 hc         1 OI2       0.037200
     44 H18         64.1400    46.3020    28.4370 hc         1 OI2       0.062700
     45 H19         63.6670    45.3420    29.8350 hc         1 OI2       0.062700
     46 H20         65.5410    43.8310    30.9600 hc         1 OI2       0.040700
     47 H21         67.2050    44.2330    30.5540 hc         1 OI2       0.040700
     48 H22         67.3200    44.2340    32.8020 hc         1 OI2       0.037700
     49 H23         66.8280    44.6640    35.0660 hc         1 OI2       0.033200
     50 H24         65.9310    46.1190    34.7210 hc         1 OI2       0.033200
     51 H25         64.3980    44.2100    35.1430 hc         1 OI2       0.036367
     52 H26         64.2030    44.7540    33.4660 hc         1 OI2       0.036367
     53 H27         65.1390    43.2850    33.8200 hc         1 OI2       0.036367
     54 H28         61.5820    48.5300    27.7280 ha         1 OI2       0.157000
     55 H29         61.9020    47.0720    30.4640 ha         1 OI2       0.180000
     56 H30         59.7210    47.0140    28.3070 ha         1 OI2       0.152000
     57 H31         57.6610    46.1850    29.0410 ha         1 OI2       0.141000
     58 H32         59.9120    44.0140    31.2640 hc         1 OI2       0.036367
     59 H33         61.2950    45.0240    30.9810 hc         1 OI2       0.036367
     60 H34         60.0870    45.5270    32.1730 hc         1 OI2       0.036367
     61 H35         64.6760    50.4170    28.4020 hc         1 OI2       0.028033
     62 H36         64.4770    49.2820    27.0600 hc         1 OI2       0.028033
     63 H37         63.1780    50.4140    27.4680 hc         1 OI2       0.028033
     64 C16         64.1860    48.4180    30.0170 ce         1 OI2      -0.160000
@<TRIPOS>BOND
     1     1     2 1   
     2     1    27 1   
     3     1    28 1   
     4     1    29 1   
     5     2     3 1   
     6     2     6 1   
     7     2    30 1   
     8     3    31 1   
     9     3    32 1   
    10     3    33 1   
    11     4    17 2   
    12     4    24 1   
    13     4    64 1   
    14     5    14 1   
    15     5    35 1   
    16     5    36 1   
    17     5    37 1   
    18     6     7 1   
    19     6    38 1   
    20     6    39 1   
    21     7    11 1   
    22     7    40 1   
    23     7    41 1   
    24     8     9 1   
    25     8    13 1   
    26     8    42 1   
    27     8    43 1   
    28     9    10 1   
    29     9    44 1   
    30     9    45 1   
    31    10    11 1   
    32    10    64 2   
    33    11    12 2   
    34    12    13 1   
    35    12    14 1   
    36    13    46 1   
    37    13    47 1   
    38    14    15 1   
    39    14    48 1   
    40    15    16 1   
    41    15    49 1   
    42    15    50 1   
    43    16    51 1   
    44    16    52 1   
    45    16    53 1   
    46    17    18 1   
    47    17    54 1   
    48    18    19 2   
    49    18    55 1   
    50    19    20 1   
    51    19    56 1   
    52    20    21 2   
    53    20    23 1   
    54    21    22 1   
    55    21    57 1   
    56    22    25 1   
    57    22    26 1   
    58    23    58 1   
    59    23    59 1   
    60    23    60 1   
    61    24    61 1   
    62    24    62 1   
    63    24    63 1   
    64    34    64 1   
@<TRIPOS>SUBSTRUCTURE
     1 OI2         1 TEMP              0 ****  ****    0 ROOT
