@<TRIPOS>MOLECULE
OI2
   64    64     1     0     0
SMALL
abcg2


@<TRIPOS>ATOM
      1 C14         62.7510    49.4580    35.0150 c3         1 OI2      -0.087100
      2 C13         64.1310    49.3190    34.3790 c3         1 OI2      -0.060700
      3 C15         65.2070    49.2410    35.4560 c3         1 OI2      -0.087100
      4 C17         63.2840    48.8120    29.0350 ce         1 OI2      -0.140200
      5 C10         68.2220    45.9100    33.0530 c3         1 OI2      -0.081100
      6 C12         64.1580    48.1160    33.4340 c3         1 OI2      -0.077400
      7 C11         65.4750    47.9490    32.6700 c3         1 OI2      -0.034200
      8 C01         65.5380    45.1480    29.3220 c6         1 OI2      -0.069400
      9 C02         64.2810    45.9730    29.5390 c6         1 OI2      -0.041200
     10 C03         64.5970    47.1500    30.4180 cf         1 OI2      -0.073200
     11 C04         65.4300    46.8730    31.6120 cf         1 OI2      -0.060200
     12 C05         66.0600    45.6860    31.7460 c2         1 OI2      -0.107400
     13 C06         66.0520    44.6480    30.6550 c6         1 OI2      -0.038200
     14 C07         66.8600    45.2160    32.9530 c3         1 OI2      -0.020500
     15 C08         66.1140    45.2000    34.2930 c3         1 OI2      -0.067400
     16 C09         64.8060    44.4240    34.2410 c3         1 OI2      -0.091100
     17 C18         62.0600    48.2990    28.7980 cf         1 OI2      -0.122000
     18 C19         61.3920    47.3000    29.5980 cf         1 OI2      -0.275000
     19 C20         60.2220    46.7350    29.2450 ce         1 OI2      -0.099000
     20 C21         59.5040    45.7210    30.0080 ce         1 OI2      -0.153200
     21 C22         58.3410    45.2660    29.4940 cf         1 OI2      -0.195200
     22 C23         57.3660    44.2360    30.0160 c          1 OI2       0.696200
     23 C26         60.1220    45.2660    31.2970 c3         1 OI2      -0.039900
     24 C27         63.8190    49.9400    28.1990 c3         1 OI2      -0.037900
     25 O24         56.3380    44.1020    29.3180 o          1 OI2      -0.721000
     26 O25         57.6300    43.6040    31.0610 o          1 OI2      -0.721000
     27 H1          62.6980    50.3340    35.6630 hc         1 OI2       0.029867
     28 H2          61.9700    49.5570    34.2590 hc         1 OI2       0.029867
     29 H3          62.5130    48.5820    35.6240 hc         1 OI2       0.029867
     30 H4          64.3170    50.2180    33.7770 hc         1 OI2       0.039700
     31 H5          65.1440    50.0950    36.1330 hc         1 OI2       0.029867
     32 H6          65.0910    48.3350    36.0580 hc         1 OI2       0.029867
     33 H7          66.2140    49.2320    35.0380 hc         1 OI2       0.029867
     34 H8          64.5030    49.2200    30.7480 ha         1 OI2       0.162000
     35 H9          68.8280    45.4430    33.8310 hc         1 OI2       0.029033
     36 H10         68.7730    45.8320    32.1150 hc         1 OI2       0.029033
     37 H11         68.1330    46.9690    33.2970 hc         1 OI2       0.029033
     38 H12         63.3320    48.2150    32.7250 hc         1 OI2       0.052200
     39 H13         63.9560    47.2050    34.0070 hc         1 OI2       0.052200
     40 H14         66.2760    47.7520    33.3770 hc         1 OI2       0.038200
     41 H15         65.7430    48.9070    32.2120 hc         1 OI2       0.038200
     42 H16         65.3360    44.3100    28.6520 hc         1 OI2       0.037200
     43 H17         66.2990    45.7660    28.8370 hc         1 OI2       0.037200
     44 H18         63.8620    46.3030    28.5890 hc         1 OI2       0.062700
     45 H19         63.5190    45.3460    30.0170 hc         1 OI2       0.062700
     46 H20         65.4510    43.7960    30.9990 hc         1 OI2       0.040700
     47 H21         67.0670    44.2520    30.5460 hc         1 OI2       0.040700
     48 H22         67.0840    44.1620    32.7520 hc         1 OI2       0.037700
     49 H23         66.7770    44.7340    35.0280 hc         1 OI2       0.033200
     50 H24         65.9310    46.2100    34.6640 hc         1 OI2       0.033200
     51 H25         64.3220    44.4010    35.2180 hc         1 OI2       0.036367
     52 H26         64.1040    44.8680    33.5340 hc         1 OI2       0.036367
     53 H27         64.9740    43.3900    33.9320 hc         1 OI2       0.036367
     54 H28         61.5040    48.6820    27.9450 ha         1 OI2       0.157000
     55 H29         61.8670    47.0140    30.5290 ha         1 OI2       0.180000
     56 H30         59.7650    47.0410    28.3070 ha         1 OI2       0.152000
     57 H31         58.0360    45.7110    28.5500 ha         1 OI2       0.141000
     58 H32         59.5140    44.5100    31.7770 hc         1 OI2       0.036367
     59 H33         61.1200    44.8570    31.1210 hc         1 OI2       0.036367
     60 H34         60.2490    46.1080    31.9820 hc         1 OI2       0.036367
     61 H35         64.0590    50.8040    28.8230 hc         1 OI2       0.028033
     62 H36         64.7460    49.6520    27.6990 hc         1 OI2       0.028033
     63 H37         63.1060    50.2610    27.4400 hc         1 OI2       0.028033
     64 C16         64.1540    48.3920    30.1370 ce         1 OI2      -0.160000
@<TRIPOS>BOND
     1     1     2 1   
     2     1    27 1   
     3     1    28 1   
     4     1    29 1   
     5     2     3 1   
     6     2     6 1   
     7     2    30 1   
     8     3    31 1   
     9     3    32 1   
    10     3    33 1   
    11     4    17 2   
    12     4    24 1   
    13     4    64 1   
    14     5    14 1   
    15     5    35 1   
    16     5    36 1   
    17     5    37 1   
    18     6     7 1   
    19     6    38 1   
    20     6    39 1   
    21     7    11 1   
    22     7    40 1   
    23     7    41 1   
    24     8     9 1   
    25     8    13 1   
    26     8    42 1   
    27     8    43 1   
    28     9    10 1   
    29     9    44 1   
    30     9    45 1   
    31    10    11 1   
    32    10    64 2   
    33    11    12 2   
    34    12    13 1   
    35    12    14 1   
    36    13    46 1   
    37    13    47 1   
    38    14    15 1   
    39    14    48 1   
    40    15    16 1   
    41    15    49 1   
    42    15    50 1   
    43    16    51 1   
    44    16    52 1   
    45    16    53 1   
    46    17    18 1   
    47    17    54 1   
    48    18    19 2   
    49    18    55 1   
    50    19    20 1   
    51    19    56 1   
    52    20    21 2   
    53    20    23 1   
    54    21    22 1   
    55    21    57 1   
    56    22    25 1   
    57    22    26 1   
    58    23    58 1   
    59    23    59 1   
    60    23    60 1   
    61    24    61 1   
    62    24    62 1   
    63    24    63 1   
    64    34    64 1   
@<TRIPOS>SUBSTRUCTURE
     1 OI2         1 TEMP              0 ****  ****    0 ROOT
