@<TRIPOS>MOLECULE
OI3
   56    59     1     0     0
SMALL
No Charge or Current Charge


@<TRIPOS>ATOM
      1 C4          20.0770    -7.0370    -8.1300 c5         1 OI3       0.165300
      2 C1          21.6540    -5.9890    -6.7030 c5         1 OI3       0.293300
      3 C5          21.7100    -3.3690    -4.2240 ca         1 OI3      -0.083600
      4 C6          22.2700    -2.1600    -3.7590 ca         1 OI3       0.434900
      5 C2          21.6500    -7.5150    -6.3750 c5         1 OI3       0.122300
      6 C3D         20.6050    -9.5090    -1.0300 c5         1 OI3       0.136300
      7 C4D         20.5430    -9.2890    -2.5880 c5         1 OI3       0.158300
      8 C5D         19.3870   -10.0720    -3.2760 c3         1 OI3       0.221600
      9 C9          18.6390    -7.2430    -7.5530 c3         1 OI3       0.222600
     10 C8          20.5800    -5.1780    -4.5380 cc         1 OI3       0.472700
     11 C10         23.6500    -2.1430    -5.5850 ca         1 OI3       0.148900
     12 C7          22.1920    -3.8970    -5.3950 ca         1 OI3       0.114500
     13 C3          21.1530    -8.1060    -7.7290 c5         1 OI3       0.117300
     14 C1D         19.8980    -7.2840    -1.5750 c5         1 OI3       0.386300
     15 C2D         20.7070    -8.0540    -0.4700 c5         1 OI3       0.080300
     16 F1          22.9360    -7.9750    -6.0520 f          1 OI3      -0.272000
     17 N9          21.4810    -5.0450    -5.6010 na         1 OI3      -0.277300
     18 N7          20.6940    -4.1530    -3.6670 nd         1 OI3      -0.585100
     19 N1          23.2440    -1.5380    -4.4420 nb         1 OI3      -0.328000
     20 N3          23.1720    -3.3000    -6.1030 nb         1 OI3      -0.206000
     21 O5D         19.4060    -9.7890    -4.6810 os         1 OI3      -0.587400
     22 O1B         17.7260   -11.6530    -5.1120 o          1 OI3      -0.854000
     23 O2B         18.6480   -10.4630    -7.0370 o          1 OI3      -0.854000
     24 O5          18.7060    -7.4680    -6.1410 os         1 OI3      -0.614400
     25 O4          20.6210    -5.7610    -7.6920 os         1 OI3      -0.456000
     26 O3          22.2160    -8.2140    -8.7050 oh         1 OI3      -0.742000
     27 O4D         20.4060    -7.8530    -2.7810 os         1 OI3      -0.436000
     28 O1D         18.5040    -7.5170    -1.5060 oh         1 OI3      -0.802000
     29 O2D         22.1030    -7.6590    -0.3610 oh         1 OI3      -0.746000
     30 PB          18.2160   -10.3360    -5.6160 p5         1 OI3       1.478800
     31 PA          17.3730    -7.7100    -5.2770 p5         1 OI3       1.481800
     32 H'4         19.9700    -7.0000    -9.2220 h1         1 OI3       0.059700
     33 H'1         22.6210    -5.7420    -7.1590 h2         1 OI3       0.085700
     34 H'2         20.9830    -7.7640    -5.5420 h1         1 OI3       0.137700
     35 HR'4        21.4820    -9.6020    -3.0620 h1         1 OI3       0.080700
     36 H5R1        19.5440   -11.1440    -3.1010 h1         1 OI3       0.018700
     37 H5R2        18.4240    -9.7940    -2.8300 h1         1 OI3       0.018700
     38 H5'1        18.0410    -6.3510    -7.7790 h1         1 OI3       0.037200
     39 H5'2        18.1710    -8.0950    -8.0620 h1         1 OI3       0.037200
     40 H8          19.8840    -6.0040    -4.4620 h5         1 OI3       0.128800
     41 H2          24.4410    -1.6480    -6.1450 h5         1 OI3       0.024100
     42 H'3         20.6800    -9.0860    -7.5650 h1         1 OI3       0.139700
     43 HR'2        20.2070    -7.9700     0.5060 h1         1 OI3       0.066700
     44 HO'3        22.9880    -8.6130    -8.2380 ho         1 OI3       0.506000
     45 HOR1        18.1860    -7.4410    -2.4760 ho         1 OI3       0.610000
     46 HOR2        22.1220    -6.6880    -0.1800 ho         1 OI3       0.507000
     47 HR'1        20.0980    -6.2050    -1.5510 h2         1 OI3       0.035700
     48 O3D         21.7620   -10.2230    -0.5940 oh         1 OI3      -0.721000
     49 HOR3        22.3650    -9.4650    -0.3660 ho         1 OI3       0.502000
     50 N6          21.8620    -1.5480    -2.6150 nv         1 OI3      -1.081900
     51 O3A         17.0840    -9.2480    -5.4590 os         1 OI3      -0.729800
     52 O1A         16.2440    -6.9060    -5.8290 o          1 OI3      -0.841500
     53 O2A         17.6040    -7.3730    -3.8430 o          1 OI3      -0.841500
     54 HR'3        19.6900   -10.0010    -0.6690 h1         1 OI3       0.036700
     55 H61         22.0860    -0.5630    -2.4970 hn         1 OI3       0.497000
     56 H62         20.9910    -1.8730    -2.2040 hn         1 OI3       0.497000
@<TRIPOS>BOND
     1     1     9 1   
     2     1    13 1   
     3     1    25 1   
     4     1    32 1   
     5     2     5 1   
     6     2    17 1   
     7     2    25 1   
     8     2    33 1   
     9     3     4 ar  
    10     3    12 ar  
    11     3    18 1   
    12     4    19 ar  
    13     4    50 1   
    14     5    13 1   
    15     5    16 1   
    16     5    34 1   
    17     6     7 1   
    18     6    15 1   
    19     6    48 1   
    20     6    54 1   
    21     7     8 1   
    22     7    27 1   
    23     7    35 1   
    24     8    21 1   
    25     8    36 1   
    26     8    37 1   
    27     9    24 1   
    28     9    38 1   
    29     9    39 1   
    30    10    17 1   
    31    10    18 2   
    32    10    40 1   
    33    11    19 ar  
    34    11    20 ar  
    35    11    41 1   
    36    12    17 1   
    37    12    20 ar  
    38    13    26 1   
    39    13    42 1   
    40    14    15 1   
    41    14    27 1   
    42    14    28 1   
    43    14    47 1   
    44    15    29 1   
    45    15    43 1   
    46    21    30 1   
    47    22    30 1   
    48    23    30 1   
    49    24    31 1   
    50    26    44 1   
    51    28    45 1   
    52    29    46 1   
    53    30    51 1   
    54    31    51 1   
    55    31    52 1   
    56    31    53 1   
    57    48    49 1   
    58    50    55 1   
    59    50    56 1   
@<TRIPOS>SUBSTRUCTURE
     1 OI3         1 TEMP              0 ****  ****    0 ROOT
