@<TRIPOS>MOLECULE
OI3
   56    59     1     0     0
SMALL
abcg2


@<TRIPOS>ATOM
      1 C4          19.6470    -6.5990    -8.0460 c5         1 OI3       0.165300
      2 C1          21.4640    -5.1470    -7.8590 c5         1 OI3       0.293300
      3 C5          22.4770    -2.2860    -5.9470 ca         1 OI3      -0.083600
      4 C6          23.0320    -0.9930    -5.9680 ca         1 OI3       0.434900
      5 C2          21.9540    -6.5560    -7.5370 c5         1 OI3       0.122300
      6 C3D         19.2300   -11.1510     0.3130 c5         1 OI3       0.136300
      7 C4D         20.0360   -10.9270    -0.9590 c5         1 OI3       0.158300
      8 C5D         19.1920   -10.9680    -2.2240 c3         1 OI3       0.221600
      9 C9          18.8170    -6.9750    -6.8400 c3         1 OI3       0.222600
     10 C8          21.6040    -4.1650    -5.5330 cc         1 OI3       0.472700
     11 C10         23.2690    -1.2370    -8.2430 ca         1 OI3       0.148900
     12 C7          22.3840    -2.9330    -7.1680 ca         1 OI3       0.114500
     13 C3          20.9180    -7.4280    -8.2390 c5         1 OI3       0.117300
     14 C1D         19.7820    -8.8130    -0.0710 c5         1 OI3       0.386300
     15 C2D         18.7570    -9.7250     0.6430 c5         1 OI3       0.080300
     16 F1          23.2340    -6.7430    -8.0230 f          1 OI3      -0.272000
     17 N9          21.8280    -4.1510    -6.8870 na         1 OI3      -0.277300
     18 N7          21.9830    -3.0740    -4.9390 nd         1 OI3      -0.585100
     19 N1          23.4220    -0.4980    -7.1480 nb         1 OI3      -0.328000
     20 N3          22.7650    -2.4540    -8.3490 nb         1 OI3      -0.206000
     21 O5D         20.0310   -10.5980    -3.2940 os         1 OI3      -0.587400
     22 O1B         18.4080   -11.2310    -5.1850 o          1 OI3      -0.854000
     23 O2B         20.6190    -9.8920    -5.6030 o          1 OI3      -0.854000
     24 O5          19.6190    -6.9080    -5.6850 os         1 OI3      -0.614400
     25 O4          20.0720    -5.2370    -7.9480 os         1 OI3      -0.456000
     26 O3          21.1710    -7.5050    -9.6190 oh         1 OI3      -0.742000
     27 O4D         20.6560    -9.6690    -0.7620 os         1 OI3      -0.436000
     28 O1D         19.0930    -7.9540    -0.9160 oh         1 OI3      -0.802000
     29 O2D         18.6940    -9.5660     2.0360 oh         1 OI3      -0.746000
     30 PB          19.4250   -10.2200    -4.7670 p5         1 OI3       1.478800
     31 PA          19.0120    -7.3030    -4.2140 p5         1 OI3       1.481800
     32 H'4         19.0070    -6.7080    -8.9280 h1         1 OI3       0.059700
     33 H'1         21.9040    -4.8160    -8.8060 h2         1 OI3       0.085700
     34 H'2         21.9690    -6.7570    -6.4660 h1         1 OI3       0.137700
     35 HR'4        20.8310   -11.6740    -1.0520 h1         1 OI3       0.080700
     36 H5R1        18.8060   -11.9850    -2.3530 h1         1 OI3       0.018700
     37 H5R2        18.3240   -10.3040    -2.1420 h1         1 OI3       0.018700
     38 H5'1        17.9580    -6.2990    -6.7690 h1         1 OI3       0.037200
     39 H5'2        18.4250    -7.9850    -7.0030 h1         1 OI3       0.037200
     40 H8          21.1580    -5.0140    -5.0370 h5         1 OI3       0.128800
     41 H2          23.6040    -0.7770    -9.1660 h5         1 OI3       0.024100
     42 H'3         20.8360    -8.4180    -7.7770 h1         1 OI3       0.139700
     43 HR'2        17.7770    -9.5610     0.1810 h1         1 OI3       0.066700
     44 HO'3        21.9750    -8.0160    -9.7600 ho         1 OI3       0.506000
     45 HOR1        19.6580    -7.6380    -1.6570 ho         1 OI3       0.610000
     46 HOR2        18.1700    -8.7850     2.2380 ho         1 OI3       0.507000
     47 HR'1        20.3960    -8.2570     0.6520 h2         1 OI3       0.035700
     48 O3D         20.0940   -11.6600     1.2950 oh         1 OI3      -0.721000
     49 HOR3        19.7070   -11.4720     2.1580 ho         1 OI3       0.502000
     50 N6          23.1840    -0.2560    -4.8670 nv         1 OI3      -1.081900
     51 O3A         18.5520    -8.8570    -4.4260 os         1 OI3      -0.729800
     52 O1A         17.7620    -6.5340    -3.9490 o          1 OI3      -0.841500
     53 O2A         20.1940    -7.2120    -3.2830 o          1 OI3      -0.841500
     54 HR'3        18.3770   -11.8230     0.1470 h1         1 OI3       0.036700
     55 H61         23.5590     0.6750    -4.9280 hn         1 OI3       0.497000
     56 H62         22.8770    -0.5900    -3.9710 hn         1 OI3       0.497000
@<TRIPOS>BOND
     1     1     9 1   
     2     1    13 1   
     3     1    25 1   
     4     1    32 1   
     5     2     5 1   
     6     2    17 1   
     7     2    25 1   
     8     2    33 1   
     9     3     4 ar  
    10     3    12 ar  
    11     3    18 1   
    12     4    19 ar  
    13     4    50 1   
    14     5    13 1   
    15     5    16 1   
    16     5    34 1   
    17     6     7 1   
    18     6    15 1   
    19     6    48 1   
    20     6    54 1   
    21     7     8 1   
    22     7    27 1   
    23     7    35 1   
    24     8    21 1   
    25     8    36 1   
    26     8    37 1   
    27     9    24 1   
    28     9    38 1   
    29     9    39 1   
    30    10    17 1   
    31    10    18 2   
    32    10    40 1   
    33    11    19 ar  
    34    11    20 ar  
    35    11    41 1   
    36    12    17 1   
    37    12    20 ar  
    38    13    26 1   
    39    13    42 1   
    40    14    15 1   
    41    14    27 1   
    42    14    28 1   
    43    14    47 1   
    44    15    29 1   
    45    15    43 1   
    46    21    30 1   
    47    22    30 1   
    48    23    30 1   
    49    24    31 1   
    50    26    44 1   
    51    28    45 1   
    52    29    46 1   
    53    30    51 1   
    54    31    51 1   
    55    31    52 1   
    56    31    53 1   
    57    48    49 1   
    58    50    55 1   
    59    50    56 1   
@<TRIPOS>SUBSTRUCTURE
     1 OI3         1 TEMP              0 ****  ****    0 ROOT
