@<TRIPOS>MOLECULE
OI4
   36    38     1     0     0
SMALL
abcg2


@<TRIPOS>ATOM
      1 N1           8.1700    -0.1350    20.7640 ns         1 OI4      -0.153000
      2 C4           8.0810     1.0150    18.6040 ca         1 OI4       0.335900
      3 C5           7.4440     0.3960    19.6810 ca         1 OI4      -0.085000
      4 C6           9.3120     0.3630    21.3140 c          1 OI4       0.600100
      5 C7           9.7750    -0.3910    22.5620 c6         1 OI4      -0.083400
      6 C8           9.3390     0.3680    23.8300 c6         1 OI4      -0.104400
      7 C10         12.0970     0.1820    23.3930 ca         1 OI4       0.163100
      8 C13         13.2260    -1.7090    21.7140 ca         1 OI4       0.090000
      9 C15         11.2720    -0.5770    22.5570 ca         1 OI4      -0.146300
     10 CL          13.9360    -2.9020    20.6410 cl         1 OI4      -0.211000
     11 C12         14.0490    -0.9650    22.5520 ca         1 OI4      -0.061000
     12 C11         13.4790    -0.0230    23.3900 ca         1 OI4      -0.134000
     13 C14         11.8560    -1.5240    21.7160 ca         1 OI4      -0.059000
     14 O1          11.6230     1.1180    24.2610 os         1 OI4      -0.345100
     15 C9          10.2580     1.5430    24.0860 c6         1 OI4       0.158600
     16 O            9.9020     1.3450    20.8820 o          1 OI4      -0.565100
     17 C1           6.0470     0.2690    19.6680 ca         1 OI4      -0.082300
     18 C            5.3060    -0.3900    20.7940 c3         1 OI4      -0.050800
     19 N            7.4240     1.5150    17.5560 nb         1 OI4      -0.645000
     20 C3           6.0930     1.4020    17.5450 ca         1 OI4       0.318900
     21 C2           5.3800     0.7890    18.5640 ca         1 OI4      -0.145000
     22 H1           7.7450    -0.9100    21.2500 hn         1 OI4       0.151000
     23 H3           9.3030    -1.3750    22.5650 hc         1 OI4       0.065700
     24 H4           8.3110     0.7200    23.7370 hc         1 OI4       0.062200
     25 H5           9.3790    -0.3180    24.6790 hc         1 OI4       0.062200
     26 H6          15.1200    -1.1190    22.5480 ha         1 OI4       0.133000
     27 H7          14.0970     0.5710    24.0510 ha         1 OI4       0.135000
     28 H8          11.2250    -2.1180    21.0670 ha         1 OI4       0.125000
     29 H9          10.2230     2.2540    23.2570 h1         1 OI4       0.071200
     30 H10         10.0000     2.0580    25.0090 h1         1 OI4       0.071200
     31 H11          5.5620    -1.4510    20.8700 hc         1 OI4       0.046033
     32 H12          5.5570     0.0730    21.7510 hc         1 OI4       0.046033
     33 H13          4.2310    -0.3150    20.6410 hc         1 OI4       0.046033
     34 H14          5.5770     1.8120    16.6840 h4         1 OI4       0.023100
     35 H15          4.3010     0.7210    18.5040 ha         1 OI4       0.122000
     36 H2           9.1570     1.1040    18.5980 h4         1 OI4       0.046100
@<TRIPOS>BOND
     1     1     3 1   
     2     1     4 1   
     3     1    22 1   
     4     2     3 ar  
     5     2    19 ar  
     6     2    36 1   
     7     3    17 ar  
     8     4     5 1   
     9     4    16 2   
    10     5     6 1   
    11     5     9 1   
    12     5    23 1   
    13     6    15 1   
    14     6    24 1   
    15     6    25 1   
    16     7     9 ar  
    17     7    12 ar  
    18     7    14 1   
    19     8    10 1   
    20     8    11 ar  
    21     8    13 ar  
    22     9    13 ar  
    23    11    12 ar  
    24    11    26 1   
    25    12    27 1   
    26    13    28 1   
    27    14    15 1   
    28    15    29 1   
    29    15    30 1   
    30    17    18 1   
    31    17    21 ar  
    32    18    31 1   
    33    18    32 1   
    34    18    33 1   
    35    19    20 ar  
    36    20    21 ar  
    37    20    34 1   
    38    21    35 1   
@<TRIPOS>SUBSTRUCTURE
     1 OI4         1 TEMP              0 ****  ****    0 ROOT
