@<TRIPOS>MOLECULE
OI4
   36    38     1     0     0
SMALL
No Charge or Current Charge


@<TRIPOS>ATOM
      1 N1           8.0900     0.2290    20.8780 ns         1 OI4      -0.153000
      2 C4           7.8110     1.6000    18.8020 ca         1 OI4       0.335900
      3 C5           7.3320     0.6540    19.7450 ca         1 OI4      -0.085000
      4 C6           9.3900     0.5030    21.2850 c          1 OI4       0.600100
      5 C7           9.8130    -0.1960    22.6040 c6         1 OI4      -0.083400
      6 C8           9.4370     0.6500    23.8470 c6         1 OI4      -0.104400
      7 C10         12.2180     0.1300    23.4310 ca         1 OI4       0.163100
      8 C13         13.1250    -1.9840    21.8130 ca         1 OI4       0.090000
      9 C15         11.3020    -0.5720    22.6110 ca         1 OI4      -0.146300
     10 Cl          13.6940    -3.3040    20.7990 cl         1 OI4      -0.211000
     11 C12         14.0290    -1.2930    22.6350 ca         1 OI4      -0.061000
     12 C11         13.5730    -0.2390    23.4470 ca         1 OI4      -0.134000
     13 C14         11.7650    -1.6290    21.8010 ca         1 OI4      -0.059000
     14 O1          11.8060     1.1580    24.2560 os         1 OI4      -0.345100
     15 C9          10.5000     1.7460    24.0680 c6         1 OI4       0.158600
     16 O           10.1730     1.1900    20.6400 o          1 OI4      -0.565100
     17 C1           6.0390     0.1180    19.5530 ca         1 OI4      -0.082300
     18 C            5.4380    -0.9010    20.5180 c3         1 OI4      -0.050800
     19 N            7.0950     2.0100    17.7270 nb         1 OI4      -0.645000
     20 C3           5.8630     1.4860    17.5530 ca         1 OI4       0.318900
     21 C2           5.3030     0.5480    18.4340 ca         1 OI4      -0.145000
     22 H1           7.5820    -0.3820    21.5040 hn         1 OI4       0.151000
     23 H3           9.1880    -1.0970    22.6900 hc         1 OI4       0.065700
     24 H4           8.4400     1.0970    23.7350 hc         1 OI4       0.062200
     25 H5           9.3950     0.0080    24.7380 hc         1 OI4       0.062200
     26 H6          15.0800    -1.5740    22.6450 ha         1 OI4       0.133000
     27 H7          14.2700     0.2960    24.0870 ha         1 OI4       0.135000
     28 H8          11.0740    -2.1770    21.1650 ha         1 OI4       0.125000
     29 H9          10.5350     2.4160    23.1960 h1         1 OI4       0.071200
     30 H10         10.2500     2.3530    24.9500 h1         1 OI4       0.071200
     31 H11          6.0590    -1.8040    20.5750 hc         1 OI4       0.046033
     32 H12          5.3510    -0.4850    21.5280 hc         1 OI4       0.046033
     33 H13          4.4350    -1.2140    20.2050 hc         1 OI4       0.046033
     34 H14          5.3060     1.8300    16.6820 h4         1 OI4       0.023100
     35 H15          4.3040     0.1650    18.2410 ha         1 OI4       0.122000
     36 H2           8.7910     2.0610    18.8960 h4         1 OI4       0.046100
@<TRIPOS>BOND
     1     1     3 1   
     2     1     4 1   
     3     1    22 1   
     4     2     3 ar  
     5     2    19 ar  
     6     2    36 1   
     7     3    17 ar  
     8     4     5 1   
     9     4    16 2   
    10     5     6 1   
    11     5     9 1   
    12     5    23 1   
    13     6    15 1   
    14     6    24 1   
    15     6    25 1   
    16     7     9 ar  
    17     7    12 ar  
    18     7    14 1   
    19     8    10 1   
    20     8    11 ar  
    21     8    13 ar  
    22     9    13 ar  
    23    11    12 ar  
    24    11    26 1   
    25    12    27 1   
    26    13    28 1   
    27    14    15 1   
    28    15    29 1   
    29    15    30 1   
    30    17    18 1   
    31    17    21 ar  
    32    18    31 1   
    33    18    32 1   
    34    18    33 1   
    35    19    20 ar  
    36    20    21 ar  
    37    20    34 1   
    38    21    35 1   
@<TRIPOS>SUBSTRUCTURE
     1 OI4         1 TEMP              0 ****  ****    0 ROOT
