@<TRIPOS>MOLECULE
OI5
   61    61     1     0     0
SMALL
abcg2


@<TRIPOS>ATOM
      1 C4          18.7170    -0.0140     3.2670 ce         1 OI5      -0.047200
      2 C5          18.7060    -0.6290     1.9210 ce         1 OI5      -0.098200
      3 C6          19.4760     0.0630     0.8230 c6         1 OI5      -0.031200
      4 C8          20.5660     2.0780     5.5260 c3         1 OI5      -0.067400
      5 C10         18.0020    -0.7550     4.3720 c3         1 OI5      -0.039200
      6 C13         19.0460    -3.7230     6.6630 c3         1 OI5      -0.091100
      7 C15         18.0110    -1.7590     1.6760 cf         1 OI5      -0.139000
      8 C17         17.7960    -3.7910     0.3190 ce         1 OI5      -0.118000
      9 C20         18.1430    -6.0430     1.2230 cf         1 OI5      -0.090000
     10 C21         18.4870    -7.0240     2.2450 cf         1 OI5      -0.158200
     11 C22         18.5160    -8.3230     1.8820 ce         1 OI5      -0.189200
     12 C24         18.8320    -9.5530     2.7030 c          1 OI5       0.697200
     13 C1          20.6290     0.8850     1.3650 c6         1 OI5      -0.072400
     14 C11         18.7810    -1.9610     4.9060 c3         1 OI5      -0.075400
     15 C12         18.1140    -2.6580     6.0910 c3         1 OI5      -0.059700
     16 C14         16.7710    -3.2760     5.7100 c3         1 OI5      -0.091100
     17 C16         17.7940    -2.4410     0.3940 cf         1 OI5      -0.144200
     18 C18         18.1170    -4.7060     1.3880 ce         1 OI5      -0.279000
     19 C19         17.4500    -1.6400    -0.8330 c3         1 OI5      -0.036900
     20 C2          20.0990     1.8690     2.3860 c6         1 OI5      -0.035200
     21 C23         18.7590    -6.5090     3.6280 c3         1 OI5      -0.036900
     22 C3          19.3170     1.1830     3.4740 c2         1 OI5      -0.128400
     23 C9          21.0650     0.7400     6.0450 c3         1 OI5      -0.090100
     24 O1          18.3780   -10.6170     2.2280 o          1 OI5      -0.719000
     25 O2          19.5080    -9.4360     3.7460 o          1 OI5      -0.719000
     26 H1          18.8040     0.7290     0.2700 hc         1 OI5       0.044700
     27 H2          19.8490    -0.6700     0.1080 hc         1 OI5       0.044700
     28 H3          18.9530     3.0050     4.4690 hc         1 OI5       0.038700
     29 H4          18.4730     1.6230     5.4200 hc         1 OI5       0.038700
     30 H5          21.3380     2.5400     4.9060 hc         1 OI5       0.029700
     31 H6          20.4100     2.7610     6.3640 hc         1 OI5       0.029700
     32 H7          17.8110    -0.0880     5.2120 hc         1 OI5       0.041200
     33 H8          17.0120    -1.0670     4.0290 hc         1 OI5       0.041200
     34 H9          18.6070    -4.2120     7.5340 hc         1 OI5       0.035033
     35 H10         19.2520    -4.4970     5.9200 hc         1 OI5       0.035033
     36 H11         20.0020    -3.2940     6.9680 hc         1 OI5       0.035033
     37 H12         17.5260    -2.2460     2.5130 ha         1 OI5       0.179000
     38 H14         17.5560    -4.2480    -0.6380 ha         1 OI5       0.157000
     39 H15         17.9100    -6.4410     0.2380 ha         1 OI5       0.152000
     40 H16         18.2480    -8.5380     0.8500 ha         1 OI5       0.142000
     41 H17         21.3670     0.2310     1.8380 hc         1 OI5       0.039700
     42 H18         21.1350     1.4050     0.5500 hc         1 OI5       0.039700
     43 H19         18.9440    -2.7000     4.1140 hc         1 OI5       0.048200
     44 H20         19.7750    -1.6220     5.2080 hc         1 OI5       0.048200
     45 H21         17.9390    -1.9060     6.8700 hc         1 OI5       0.030700
     46 H22         16.3270    -3.8040     6.5550 hc         1 OI5       0.035033
     47 H23         16.0500    -2.5290     5.3770 hc         1 OI5       0.035033
     48 H24         16.8990    -3.9970     4.8980 hc         1 OI5       0.035033
     49 H25         18.3670    -4.2850     2.3570 ha         1 OI5       0.175000
     50 H26         16.7270    -0.8550    -0.6020 hc         1 OI5       0.028367
     51 H27         18.3170    -1.1480    -1.2740 hc         1 OI5       0.028367
     52 H28         17.0170    -2.2800    -1.6030 hc         1 OI5       0.028367
     53 H29         20.9190     2.4420     2.8260 hc         1 OI5       0.036700
     54 H30         19.4580     2.6110     1.8930 hc         1 OI5       0.036700
     55 H31         18.9460    -7.3180     4.3230 hc         1 OI5       0.034367
     56 H32         19.6250    -5.8440     3.6370 hc         1 OI5       0.034367
     57 H33         17.9130    -5.9200     3.9890 hc         1 OI5       0.034367
     58 H35         21.9860     0.8580     6.6170 hc         1 OI5       0.034367
     59 H36         20.3280     0.2680     6.6980 hc         1 OI5       0.034367
     60 H37         21.2690     0.0470     5.2280 hc         1 OI5       0.034367
     61 C7          19.2480     1.9860     4.7460 c3         1 OI5      -0.032200
@<TRIPOS>BOND
     1     1     2 1   
     2     1     5 1   
     3     1    22 2   
     4     2     3 1   
     5     2     7 2   
     6     3    13 1   
     7     3    26 1   
     8     3    27 1   
     9     4    23 1   
    10     4    30 1   
    11     4    31 1   
    12     4    61 1   
    13     5    14 1   
    14     5    32 1   
    15     5    33 1   
    16     6    15 1   
    17     6    34 1   
    18     6    35 1   
    19     6    36 1   
    20     7    17 1   
    21     7    37 1   
    22     8    17 2   
    23     8    18 1   
    24     8    38 1   
    25     9    10 1   
    26     9    18 2   
    27     9    39 1   
    28    10    11 2   
    29    10    21 1   
    30    11    12 1   
    31    11    40 1   
    32    12    24 1   
    33    12    25 1   
    34    13    20 1   
    35    13    41 1   
    36    13    42 1   
    37    14    15 1   
    38    14    43 1   
    39    14    44 1   
    40    15    16 1   
    41    15    45 1   
    42    16    46 1   
    43    16    47 1   
    44    16    48 1   
    45    17    19 1   
    46    18    49 1   
    47    19    50 1   
    48    19    51 1   
    49    19    52 1   
    50    20    22 1   
    51    20    53 1   
    52    20    54 1   
    53    21    55 1   
    54    21    56 1   
    55    21    57 1   
    56    22    61 1   
    57    23    58 1   
    58    23    59 1   
    59    23    60 1   
    60    28    61 1   
    61    29    61 1   
@<TRIPOS>SUBSTRUCTURE
     1 OI5         1 TEMP              0 ****  ****    0 ROOT
