@<TRIPOS>MOLECULE
OI5
   61    61     1     0     0
SMALL
No Charge or Current Charge


@<TRIPOS>ATOM
      1 C4          18.6690     0.0530     3.2900 ce         1 OI5      -0.047200
      2 C5          18.6460    -0.6200     1.9420 ce         1 OI5      -0.098200
      3 C6          19.5480    -0.0030     0.8510 c6         1 OI5      -0.031200
      4 C8          20.6470     2.0930     5.5110 c3         1 OI5      -0.067400
      5 C10         17.9880    -0.7090     4.4420 c3         1 OI5      -0.039200
      6 C13         19.1150    -3.8220     6.6180 c3         1 OI5      -0.091100
      7 C15         17.8950    -1.7310     1.6310 cf         1 OI5      -0.139000
      8 C17         17.8660    -3.7840     0.2370 ce         1 OI5      -0.118000
      9 C20         18.1630    -6.0810     1.1880 cf         1 OI5      -0.090000
     10 C21         18.4550    -7.0850     2.2200 cf         1 OI5      -0.158200
     11 C22         18.7510    -8.3710     1.8350 ce         1 OI5      -0.189200
     12 C24         19.0950    -9.5810     2.6600 c          1 OI5       0.697200
     13 C1          20.6220     0.9460     1.3970 c6         1 OI5      -0.072400
     14 C11         18.7540    -1.9860     4.8830 c3         1 OI5      -0.075400
     15 C12         18.1840    -2.6830     6.1480 c3         1 OI5      -0.059700
     16 C14         16.7390    -3.2000     5.9480 c3         1 OI5      -0.091100
     17 C16         17.7930    -2.4250     0.3420 cf         1 OI5      -0.144200
     18 C18         18.1490    -4.7250     1.3310 ce         1 OI5      -0.279000
     19 C19         17.4350    -1.5900    -0.8790 c3         1 OI5      -0.036900
     20 C2          19.9570     1.9780     2.3090 c6         1 OI5      -0.035200
     21 C23         18.3480    -6.6460     3.6800 c3         1 OI5      -0.036900
     22 C3          19.2580     1.2800     3.4710 c2         1 OI5      -0.128400
     23 C9          21.0920     0.6910     5.9650 c3         1 OI5      -0.090100
     24 O1          19.2880   -10.6230     2.0530 o          1 OI5      -0.719000
     25 O2          19.1980    -9.5000     3.8740 o          1 OI5      -0.719000
     26 H1          18.9230     0.5530     0.1400 hc         1 OI5       0.044700
     27 H2          20.0440    -0.7990     0.2780 hc         1 OI5       0.044700
     28 H3          19.0890     3.1710     4.4920 hc         1 OI5       0.038700
     29 H4          18.4950     1.8720     5.4510 hc         1 OI5       0.038700
     30 H5          21.4340     2.5280     4.8850 hc         1 OI5       0.029700
     31 H6          20.5640     2.7370     6.3950 hc         1 OI5       0.029700
     32 H7          17.8630    -0.0930     5.3330 hc         1 OI5       0.041200
     33 H8          16.9610    -0.9650     4.1620 hc         1 OI5       0.041200
     34 H9          18.7360    -4.2800     7.5390 hc         1 OI5       0.035033
     35 H10         19.1930    -4.6040     5.8530 hc         1 OI5       0.035033
     36 H11         20.1230    -3.4410     6.8220 hc         1 OI5       0.035033
     37 H12         17.2850    -2.1870     2.4080 ha         1 OI5       0.179000
     38 H14         17.7130    -4.2270    -0.7490 ha         1 OI5       0.157000
     39 H15         17.9570    -6.4730     0.1900 ha         1 OI5       0.152000
     40 H16         18.7620    -8.5800     0.7680 ha         1 OI5       0.142000
     41 H17         21.3770     0.3780     1.9600 hc         1 OI5       0.039700
     42 H18         21.1450     1.4450     0.5700 hc         1 OI5       0.039700
     43 H19         18.7880    -2.7090     4.0620 hc         1 OI5       0.048200
     44 H20         19.7960    -1.7130     5.0780 hc         1 OI5       0.048200
     45 H21         18.1570    -1.9390     6.9550 hc         1 OI5       0.030700
     46 H22         16.3920    -3.7330     6.8410 hc         1 OI5       0.035033
     47 H23         16.0420    -2.3730     5.7700 hc         1 OI5       0.035033
     48 H24         16.6830    -3.8880     5.0960 hc         1 OI5       0.035033
     49 H25         18.3870    -4.2890     2.2990 ha         1 OI5       0.175000
     50 H26         16.9470    -0.6500    -0.5980 hc         1 OI5       0.028367
     51 H27         18.3250    -1.3470    -1.4710 hc         1 OI5       0.028367
     52 H28         16.7400    -2.1250    -1.5380 hc         1 OI5       0.028367
     53 H29         20.7240     2.6790     2.6670 hc         1 OI5       0.036700
     54 H30         19.2300     2.5780     1.7450 hc         1 OI5       0.036700
     55 H31         17.8540    -7.4040     4.2970 hc         1 OI5       0.034367
     56 H32         19.3380    -6.4520     4.1080 hc         1 OI5       0.034367
     57 H33         17.7440    -5.7420     3.8070 hc         1 OI5       0.034367
     58 H35         22.0050     0.7580     6.5670 hc         1 OI5       0.034367
     59 H36         20.3140     0.2130     6.5740 hc         1 OI5       0.034367
     60 H37         21.3050     0.0560     5.0980 hc         1 OI5       0.034367
     61 C7          19.2960     2.1250     4.7530 c3         1 OI5      -0.032200
@<TRIPOS>BOND
     1     1     2 1   
     2     1     5 1   
     3     1    22 2   
     4     2     3 1   
     5     2     7 2   
     6     3    13 1   
     7     3    26 1   
     8     3    27 1   
     9     4    23 1   
    10     4    30 1   
    11     4    31 1   
    12     4    61 1   
    13     5    14 1   
    14     5    32 1   
    15     5    33 1   
    16     6    15 1   
    17     6    34 1   
    18     6    35 1   
    19     6    36 1   
    20     7    17 1   
    21     7    37 1   
    22     8    17 2   
    23     8    18 1   
    24     8    38 1   
    25     9    10 1   
    26     9    18 2   
    27     9    39 1   
    28    10    11 2   
    29    10    21 1   
    30    11    12 1   
    31    11    40 1   
    32    12    24 1   
    33    12    25 1   
    34    13    20 1   
    35    13    41 1   
    36    13    42 1   
    37    14    15 1   
    38    14    43 1   
    39    14    44 1   
    40    15    16 1   
    41    15    45 1   
    42    16    46 1   
    43    16    47 1   
    44    16    48 1   
    45    17    19 1   
    46    18    49 1   
    47    19    50 1   
    48    19    51 1   
    49    19    52 1   
    50    20    22 1   
    51    20    53 1   
    52    20    54 1   
    53    21    55 1   
    54    21    56 1   
    55    21    57 1   
    56    22    61 1   
    57    23    58 1   
    58    23    59 1   
    59    23    60 1   
    60    28    61 1   
    61    29    61 1   
@<TRIPOS>SUBSTRUCTURE
     1 OI5         1 TEMP              0 ****  ****    0 ROOT
