@<TRIPOS>MOLECULE
OI6
   57    60     1     0     0
SMALL
No Charge or Current Charge


@<TRIPOS>ATOM
      1 C4         -19.5270    -6.9380     7.6370 c5         1 OI6       0.168300
      2 C1         -21.3060    -5.6510     6.8150 c5         1 OI6       0.318300
      3 C2         -24.3430    -2.4250     7.3050 ca         1 OI6       0.155900
      4 C3D        -20.9160    -9.7670     0.8120 c5         1 OI6       0.136300
      5 C4D        -20.6790    -9.4720     2.3420 c5         1 OI6       0.158300
      6 C5D        -19.5050   -10.2910     2.9530 c3         1 OI6       0.220600
      7 C5         -18.1700    -7.2830     6.9580 c3         1 OI6       0.222600
      8 C7         -22.6340    -3.5740     6.3040 ca         1 OI6       0.127500
      9 C6         -23.6350    -1.6710     5.2640 ca         1 OI6       0.438900
     10 C10        -22.6820    -2.7120     5.2370 ca         1 OI6      -0.091600
     11 C8         -21.1080    -4.1030     4.7680 cc         1 OI6       0.368800
     12 C9         -21.4550    -7.0670     6.1710 c5         1 OI6       0.080300
     13 C3         -20.7270    -7.8940     7.2670 c5         1 OI6       0.118300
     14 C1D        -20.0380    -7.5620     1.1560 c5         1 OI6       0.389300
     15 C2D        -20.9970    -8.3390     0.1840 c5         1 OI6       0.077300
     16 N9         -21.6390    -4.4670     6.0170 na         1 OI6      -0.256300
     17 N3         -23.4630    -3.4530     7.3610 nb         1 OI6      -0.196000
     18 N1         -24.4700    -1.5210     6.3030 nb         1 OI6      -0.326000
     19 N6         -23.7610    -0.7600     4.2630 nv         1 OI6      -1.079900
     20 N7         -21.7290    -3.0210     4.2630 nd         1 OI6      -0.567100
     21 O5D        -19.3710    -9.9500     4.3380 os         1 OI6      -0.585400
     22 O1B        -18.4200   -10.5410     6.6480 o          1 OI6      -0.849500
     23 O2B        -17.7600   -11.8860     4.7150 o          1 OI6      -0.849500
     24 O3A        -16.9550    -9.5090     4.8600 os         1 OI6      -0.724800
     25 O1A        -17.5180    -7.7070     3.1770 o          1 OI6      -0.841000
     26 O2A        -15.9550    -7.2060     4.9950 o          1 OI6      -0.841000
     27 O5         -18.4000    -7.5950     5.5780 os         1 OI6      -0.602400
     28 O4         -19.9380    -5.5920     7.2560 os         1 OI6      -0.454000
     29 O2         -22.8260    -7.5070     6.0110 oh         1 OI6      -0.727000
     30 O3         -21.6370    -8.1140     8.3600 oh         1 OI6      -0.741000
     31 O4D        -20.4450    -8.0380     2.4380 os         1 OI6      -0.436000
     32 O1D        -18.6730    -7.8770     0.9590 oh         1 OI6      -0.814000
     33 O2D        -22.3740    -7.8690     0.1930 oh         1 OI6      -0.748000
     34 PB         -18.1250   -10.5160     5.1860 p5         1 OI6       1.469800
     35 PA         -17.1770    -7.9680     4.6050 p5         1 OI6       1.478800
     36 Br28       -19.6400    -4.9520     3.9270 br         1 OI6       0.128700
     37 H'4        -19.3590    -6.9450     8.7220 h1         1 OI6       0.058700
     38 H'1        -21.9550    -5.6000     7.6980 h2         1 OI6       0.087700
     39 H2         -25.0180    -2.3140     8.1520 h5         1 OI6       0.029100
     40 HR'4       -21.5810    -9.7030     2.9240 h1         1 OI6       0.079700
     41 H5R1       -19.7340   -11.3590     2.8450 h1         1 OI6       0.018200
     42 H5R2       -18.5770   -10.0890     2.4040 h1         1 OI6       0.018200
     43 H5'1       -17.4920    -6.4260     7.0640 h1         1 OI6       0.042700
     44 H5'2       -17.7180    -8.1370     7.4800 h1         1 OI6       0.042700
     45 H'2        -20.9050    -7.1350     5.2210 h1         1 OI6       0.113700
     46 H'3        -20.3660    -8.8490     6.8590 h1         1 OI6       0.128700
     47 HR'2       -20.5980    -8.3350    -0.8410 h1         1 OI6       0.064700
     48 H61        -24.2440     0.1100     4.4700 hn         1 OI6       0.497500
     49 H62        -23.0080    -0.7160     3.5810 hn         1 OI6       0.497500
     50 HO'2       -23.1810    -7.0880     5.1910 ho         1 OI6       0.514000
     51 HO'3       -22.5180    -8.1260     7.9070 ho         1 OI6       0.505000
     52 HOR1       -18.2560    -7.7840     1.8900 ho         1 OI6       0.616000
     53 HOR2       -22.3640    -6.9200    -0.0830 ho         1 OI6       0.507000
     54 HR'1       -20.1830    -6.4760     1.0920 h2         1 OI6       0.032700
     55 O3D        -22.1480   -10.4310     0.5370 oh         1 OI6      -0.723000
     56 HOR3       -22.7280    -9.6500     0.3290 ho         1 OI6       0.503000
     57 HR'3       -20.0710   -10.3300     0.3900 h1         1 OI6       0.036700
@<TRIPOS>BOND
     1     1     7 1   
     2     1    13 1   
     3     1    28 1   
     4     1    37 1   
     5     2    12 1   
     6     2    16 1   
     7     2    28 1   
     8     2    38 1   
     9     3    17 ar  
    10     3    18 ar  
    11     3    39 1   
    12     4     5 1   
    13     4    15 1   
    14     4    55 1   
    15     4    57 1   
    16     5     6 1   
    17     5    31 1   
    18     5    40 1   
    19     6    21 1   
    20     6    41 1   
    21     6    42 1   
    22     7    27 1   
    23     7    43 1   
    24     7    44 1   
    25     8    10 ar  
    26     8    16 1   
    27     8    17 ar  
    28     9    10 ar  
    29     9    18 ar  
    30     9    19 1   
    31    10    20 1   
    32    11    16 1   
    33    11    20 2   
    34    11    36 1   
    35    12    13 1   
    36    12    29 1   
    37    12    45 1   
    38    13    30 1   
    39    13    46 1   
    40    14    15 1   
    41    14    31 1   
    42    14    32 1   
    43    14    54 1   
    44    15    33 1   
    45    15    47 1   
    46    19    48 1   
    47    19    49 1   
    48    21    34 1   
    49    22    34 1   
    50    23    34 1   
    51    24    34 1   
    52    24    35 1   
    53    25    35 1   
    54    26    35 1   
    55    27    35 1   
    56    29    50 1   
    57    30    51 1   
    58    32    52 1   
    59    33    53 1   
    60    55    56 1   
@<TRIPOS>SUBSTRUCTURE
     1 OI6         1 TEMP              0 ****  ****    0 ROOT
