@<TRIPOS>MOLECULE
OI6
   57    60     1     0     0
SMALL
abcg2


@<TRIPOS>ATOM
      1 C4         -19.6170    -6.4250     7.6680 c5         1 OI6       0.168300
      2 C1         -21.1880    -4.7300     7.7390 c5         1 OI6       0.318300
      3 C2         -23.6140    -1.4370     8.9750 ca         1 OI6       0.155900
      4 C3D        -19.4260   -11.4860    -0.5000 c5         1 OI6       0.136300
      5 C4D        -20.0670   -11.3630     0.8760 c5         1 OI6       0.158300
      6 C5D        -19.0540   -11.1480     1.9900 c3         1 OI6       0.220600
      7 C5         -18.9350    -7.0160     6.4550 c3         1 OI6       0.222600
      8 C7         -22.4040    -2.5840     7.5480 ca         1 OI6       0.127500
      9 C6         -23.4520    -0.5740     6.8480 ca         1 OI6       0.438900
     10 C10        -22.6350    -1.6750     6.5330 ca         1 OI6      -0.091600
     11 C8         -21.3970    -3.1620     5.7000 cc         1 OI6       0.368800
     12 C9         -21.9440    -6.0100     7.3980 c5         1 OI6       0.080300
     13 C3         -20.9790    -7.0480     7.9850 c5         1 OI6       0.118300
     14 C1D        -20.4170    -9.2980    -0.0900 c5         1 OI6       0.389300
     15 C2D        -19.3590   -10.0180    -0.9590 c5         1 OI6       0.077300
     16 N9         -21.5980    -3.5520     7.0040 na         1 OI6      -0.256300
     17 N3         -22.8690    -2.5140     8.7910 nb         1 OI6      -0.196000
     18 N1         -23.9280    -0.4900     8.0960 nb         1 OI6      -0.326000
     19 N6         -23.7670     0.3710     5.9640 nv         1 OI6      -1.079900
     20 N7         -21.9890    -2.0550     5.3860 nd         1 OI6      -0.567100
     21 O5D        -19.7780   -10.9000     3.1730 os         1 OI6      -0.585400
     22 O1B        -20.1200   -10.2630     5.5530 o          1 OI6      -0.849500
     23 O2B        -17.7900   -11.1670     4.7780 o          1 OI6      -0.849500
     24 O3A        -18.5010    -8.8770     4.0720 os         1 OI6      -0.724800
     25 O1A        -20.6000    -7.7230     3.0900 o          1 OI6      -0.841000
     26 O2A        -18.3480    -6.4590     3.4370 o          1 OI6      -0.841000
     27 O5         -19.8540    -7.1710     5.3990 os         1 OI6      -0.602400
     28 O4         -19.8460    -5.0160     7.5090 os         1 OI6      -0.454000
     29 O2         -23.2110    -5.9880     7.9870 oh         1 OI6      -0.727000
     30 O3         -21.1200    -7.1180     9.3830 oh         1 OI6      -0.741000
     31 O4D        -20.9710   -10.2810     0.7480 os         1 OI6      -0.436000
     32 O1D        -19.7910    -8.2780     0.6110 oh         1 OI6      -0.814000
     33 O2D        -19.5880    -9.9560    -2.3420 oh         1 OI6      -0.748000
     34 PB         -19.0340   -10.3770     4.5340 p5         1 OI6       1.469800
     35 PA         -19.3400    -7.4850     3.8810 p5         1 OI6       1.478800
     36 BR28       -20.3340    -4.1030     4.5140 br         1 OI6       0.128700
     37 H'4        -18.9400    -6.5700     8.5160 h1         1 OI6       0.058700
     38 H'1        -21.3770    -4.4740     8.7890 h2         1 OI6       0.087700
     39 H2         -24.0260    -1.3060     9.9690 h5         1 OI6       0.029100
     40 HR'4       -20.6540   -12.2550     1.1120 h1         1 OI6       0.079700
     41 H5R1       -18.4410   -12.0520     2.0810 h1         1 OI6       0.018200
     42 H5R2       -18.3730   -10.3230     1.7510 h1         1 OI6       0.018200
     43 H5'1       -18.0880    -6.3820     6.1700 h1         1 OI6       0.042700
     44 H5'2       -18.5270    -7.9870     6.7540 h1         1 OI6       0.042700
     45 H'2        -21.9960    -6.1330     6.3110 h1         1 OI6       0.113700
     46 H'3        -21.0960    -8.0350     7.5210 h1         1 OI6       0.128700
     47 HR'2       -18.3750    -9.6100    -0.7020 h1         1 OI6       0.064700
     48 H61        -24.3540     1.1420     6.2330 hn         1 OI6       0.497500
     49 H62        -23.4280     0.3370     5.0190 hn         1 OI6       0.497500
     50 HO'2       -23.7850    -6.5990     7.5140 ho         1 OI6       0.514000
     51 HO'3       -22.0610    -7.1930     9.5810 ho         1 OI6       0.505000
     52 HOR1       -20.2500    -8.0760     1.4640 ho         1 OI6       0.616000
     53 HOR2       -19.3370    -9.0840    -2.6630 ho         1 OI6       0.507000
     54 HR'1       -21.2440    -8.9130    -0.7050 h2         1 OI6       0.032700
     55 O3D        -20.2710   -12.2570    -1.3140 oh         1 OI6      -0.723000
     56 HOR3       -20.0890   -12.0290    -2.2320 ho         1 OI6       0.503000
     57 HR'3       -18.4210   -11.9260    -0.4450 h1         1 OI6       0.036700
@<TRIPOS>BOND
     1     1     7 1   
     2     1    13 1   
     3     1    28 1   
     4     1    37 1   
     5     2    12 1   
     6     2    16 1   
     7     2    28 1   
     8     2    38 1   
     9     3    17 ar  
    10     3    18 ar  
    11     3    39 1   
    12     4     5 1   
    13     4    15 1   
    14     4    55 1   
    15     4    57 1   
    16     5     6 1   
    17     5    31 1   
    18     5    40 1   
    19     6    21 1   
    20     6    41 1   
    21     6    42 1   
    22     7    27 1   
    23     7    43 1   
    24     7    44 1   
    25     8    10 ar  
    26     8    16 1   
    27     8    17 ar  
    28     9    10 ar  
    29     9    18 ar  
    30     9    19 1   
    31    10    20 1   
    32    11    16 1   
    33    11    20 2   
    34    11    36 1   
    35    12    13 1   
    36    12    29 1   
    37    12    45 1   
    38    13    30 1   
    39    13    46 1   
    40    14    15 1   
    41    14    31 1   
    42    14    32 1   
    43    14    54 1   
    44    15    33 1   
    45    15    47 1   
    46    19    48 1   
    47    19    49 1   
    48    21    34 1   
    49    22    34 1   
    50    23    34 1   
    51    24    34 1   
    52    24    35 1   
    53    25    35 1   
    54    26    35 1   
    55    27    35 1   
    56    29    50 1   
    57    30    51 1   
    58    32    52 1   
    59    33    53 1   
    60    55    56 1   
@<TRIPOS>SUBSTRUCTURE
     1 OI6         1 TEMP              0 ****  ****    0 ROOT
