@<TRIPOS>MOLECULE
OIA
   22    23     1     0     0
SMALL
No Charge or Current Charge


@<TRIPOS>ATOM
      1 O14         -3.4410    -0.0250    -0.8490 o          1 OIA      -0.730000
      2 C11         -2.8300    -0.7930    -0.1220 c          1 OIA       0.726000
      3 O13         -3.3320    -1.3670     0.8320 o          1 OIA      -0.730000
      4 C10         -1.3320    -1.0140    -0.3950 c3         1 OIA      -0.190400
      5 C3          -0.4520    -0.0600     0.4700 c5         1 OIA      -0.083400
      6 C9           1.0390    -0.3440     0.2870 ca         1 OIA      -0.116300
      7 C4           1.7740    -1.4990     0.5920 ca         1 OIA      -0.063000
      8 C5           3.1540    -1.5120     0.2930 ca         1 OIA      -0.159000
      9 C6           3.7750    -0.3870    -0.3010 ca         1 OIA      -0.097000
     10 C7           3.0190     0.7640    -0.6020 ca         1 OIA      -0.168000
     11 C8           1.6550     0.7430    -0.2950 ca         1 OIA      -0.028000
     12 N1           0.6950     1.7300    -0.4570 ns         1 OIA      -0.168000
     13 C2          -0.5680     1.4460     0.0240 c          1 OIA       0.565000
     14 O12         -1.4530     2.2690     0.2220 o          1 OIA      -0.499000
     15 H2          -1.0590    -2.0290    -0.0820 hc         1 OIA       0.027200
     16 H3          -1.0970    -0.8090    -1.4470 hc         1 OIA       0.027200
     17 H4          -0.7960    -0.1400     1.5080 hc         1 OIA       0.118700
     18 H5           1.2930    -2.3640     1.0430 ha         1 OIA       0.119000
     19 H6           3.7450    -2.3960     0.5200 ha         1 OIA       0.100000
     20 H7           4.8390    -0.4110    -0.5250 ha         1 OIA       0.094000
     21 H8           3.4820     1.6390    -1.0540 ha         1 OIA       0.105000
     22 H9           0.9510     2.6670    -0.7400 hn         1 OIA       0.150000
@<TRIPOS>BOND
     1     1     2 1   
     2     2     3 1   
     3     2     4 1   
     4     4     5 1   
     5     4    15 1   
     6     4    16 1   
     7     5     6 1   
     8     5    13 1   
     9     5    17 1   
    10     6     7 ar  
    11     6    11 ar  
    12     7     8 ar  
    13     7    18 1   
    14     8     9 ar  
    15     8    19 1   
    16     9    10 ar  
    17     9    20 1   
    18    10    11 ar  
    19    10    21 1   
    20    11    12 1   
    21    12    13 1   
    22    12    22 1   
    23    13    14 2   
@<TRIPOS>SUBSTRUCTURE
     1 OIA         1 TEMP              0 ****  ****    0 ROOT
