@<TRIPOS>MOLECULE
OIA
   22    23     1     0     0
SMALL
abcg2


@<TRIPOS>ATOM
      1 O14         -3.6860    -0.7790    -0.9620 o          1 OIA      -0.730000
      2 C11         -2.8600    -0.7390    -0.0300 c          1 OIA       0.726000
      3 O13         -3.1110    -0.6160     1.1850 o          1 OIA      -0.730000
      4 C10         -1.3780    -0.9290    -0.4100 c3         1 OIA      -0.190400
      5 C3          -0.4180    -0.0700     0.4100 c5         1 OIA      -0.083400
      6 C9           1.0380    -0.3830     0.2380 ca         1 OIA      -0.116300
      7 C4           1.7500    -1.5490     0.4190 ca         1 OIA      -0.063000
      8 C5           3.1260    -1.5490     0.1820 ca         1 OIA      -0.159000
      9 C6           3.7660    -0.3880    -0.2310 ca         1 OIA      -0.097000
     10 C7           3.0590     0.7980    -0.4190 ca         1 OIA      -0.168000
     11 C8           1.6980     0.7730    -0.1780 ca         1 OIA      -0.028000
     12 N1           0.7750     1.8050    -0.2920 ns         1 OIA      -0.168000
     13 C2          -0.4920     1.3990     0.0070 c          1 OIA       0.565000
     14 O12         -1.4850     2.0940    -0.0620 o          1 OIA      -0.499000
     15 H2          -1.1290    -1.9800    -0.2280 hc         1 OIA       0.027200
     16 H3          -1.2210    -0.7590    -1.4780 hc         1 OIA       0.027200
     17 H4          -0.7110    -0.1460     1.4630 hc         1 OIA       0.118700
     18 H5           1.2540    -2.4560     0.7430 ha         1 OIA       0.119000
     19 H6           3.6960    -2.4570     0.3230 ha         1 OIA       0.100000
     20 H7           4.8340    -0.4000    -0.4100 ha         1 OIA       0.094000
     21 H8           3.5600     1.7020    -0.7410 ha         1 OIA       0.105000
     22 H9           0.9990     2.7370    -0.6080 hn         1 OIA       0.150000
@<TRIPOS>BOND
     1     1     2 1   
     2     2     3 1   
     3     2     4 1   
     4     4     5 1   
     5     4    15 1   
     6     4    16 1   
     7     5     6 1   
     8     5    13 1   
     9     5    17 1   
    10     6     7 ar  
    11     6    11 ar  
    12     7     8 ar  
    13     7    18 1   
    14     8     9 ar  
    15     8    19 1   
    16     9    10 ar  
    17     9    20 1   
    18    10    11 ar  
    19    10    21 1   
    20    11    12 1   
    21    12    13 1   
    22    12    22 1   
    23    13    14 2   
@<TRIPOS>SUBSTRUCTURE
     1 OIA         1 TEMP              0 ****  ****    0 ROOT
