@<TRIPOS>MOLECULE
OIC
   26    27     1     0     0
SMALL
bcc


@<TRIPOS>ATOM
      1 N           -0.0160     4.8720     3.3880 n7         1 OIC      -0.746200
      2 CA          -0.0720     4.6740     4.8420 c5         1 OIC       0.016500
      3 C           -1.2140     3.6970     5.2450 c          1 OIC       0.940600
      4 O           -2.0500     4.0820     6.0880 o          1 OIC      -0.833300
      5 OXT         -1.1710     2.5730     4.7070 o          1 OIC      -0.833300
      6 CB          -0.1480     6.0830     5.4420 c5         1 OIC      -0.085400
      7 CG          -0.8140     6.9550     4.3620 c5         1 OIC      -0.079700
      8 CD          -0.8350     6.0480     3.0940 c5         1 OIC       0.171500
      9 C4          -2.2030     7.4740     4.7310 c6         1 OIC      -0.067400
     10 C5          -2.9070     8.0200     3.4940 c6         1 OIC      -0.068400
     11 C6          -3.0990     6.9260     2.4210 c6         1 OIC      -0.070400
     12 C7          -2.2600     5.6780     2.7000 c6         1 OIC      -0.068400
     13 H            0.9410     5.0940     3.1450 hn         1 OIC       0.305800
     14 HA           0.8560     4.1780     5.1470 h1         1 OIC       0.032700
     15 HB2         -0.6920     6.1040     6.3860 hc         1 OIC       0.033200
     16 HB3          0.8620     6.4480     5.6440 hc         1 OIC       0.033200
     17 HG          -0.1860     7.8260     4.1540 hc         1 OIC       0.010700
     18 HD          -0.3890     6.5750     2.2440 h1         1 OIC       0.011700
     19 H41         -2.7950     6.6730     5.1830 hc         1 OIC       0.049700
     20 H42         -2.1130     8.2530     5.4920 hc         1 OIC       0.049700
     21 H51         -3.8690     8.4600     3.7640 hc         1 OIC       0.016200
     22 H52         -2.3060     8.8400     3.0900 hc         1 OIC       0.016200
     23 H61         -4.1520     6.6410     2.3580 hc         1 OIC       0.018200
     24 H62         -2.8360     7.3250     1.4380 hc         1 OIC       0.018200
     25 H71         -2.2430     5.0350     1.8170 hc         1 OIC       0.064700
     26 H72         -2.7260     5.0930     3.4970 hc         1 OIC       0.064700
@<TRIPOS>BOND
     1     1     2 1   
     2     1     8 1   
     3     1    13 1   
     4     2     3 1   
     5     2     6 1   
     6     2    14 1   
     7     3     4 1   
     8     3     5 1   
     9     6     7 1   
    10     6    15 1   
    11     6    16 1   
    12     7     8 1   
    13     7     9 1   
    14     7    17 1   
    15     8    12 1   
    16     8    18 1   
    17     9    10 1   
    18     9    19 1   
    19     9    20 1   
    20    10    11 1   
    21    10    21 1   
    22    10    22 1   
    23    11    12 1   
    24    11    23 1   
    25    11    24 1   
    26    12    25 1   
    27    12    26 1   
@<TRIPOS>SUBSTRUCTURE
     1 OIC         1 TEMP              0 ****  ****    0 ROOT
