@<TRIPOS>MOLECULE
OIC
   26    27     1     0     0
SMALL
No Charge or Current Charge


@<TRIPOS>ATOM
      1 N           -0.0810     4.7380     3.4220 n7         1 OIC      -0.801400
      2 CA          -0.1160     4.6740     4.9300 c5         1 OIC       0.016500
      3 C           -1.4050     4.0360     5.6320 c          1 OIC       0.730000
      4 O           -1.6480     4.3060     6.8030 o          1 OIC      -0.728000
      5 OXT         -2.1050     3.2410     5.0150 o          1 OIC      -0.728000
      6 CB           0.0920     6.1680     5.3220 c5         1 OIC      -0.085400
      7 CG          -0.8210     6.9170     4.3120 c5         1 OIC      -0.079700
      8 CD          -0.7500     6.0100     3.0360 c5         1 OIC       0.171500
      9 C4          -2.2750     7.2060     4.7830 c6         1 OIC      -0.067400
     10 C5          -3.1380     7.7860     3.6290 c6         1 OIC      -0.068400
     11 C6          -2.9510     7.0440     2.2690 c6         1 OIC      -0.070400
     12 C7          -2.1370     5.7300     2.3950 c6         1 OIC      -0.068400
     13 H            0.9010     4.8170     3.1370 hn         1 OIC       0.361000
     14 HA           0.7300     4.0720     5.2870 h1         1 OIC       0.032700
     15 HB2         -0.1480     6.3920     6.3680 hc         1 OIC       0.033200
     16 HB3          1.1400     6.4560     5.1760 hc         1 OIC       0.033200
     17 HG          -0.4030     7.9070     4.0950 hc         1 OIC       0.010700
     18 HD          -0.1390     6.5090     2.2710 h1         1 OIC       0.011700
     19 H41         -2.7490     6.2880     5.1520 hc         1 OIC       0.049700
     20 H42         -2.2650     7.9040     5.6310 hc         1 OIC       0.049700
     21 H51         -4.1960     7.7560     3.9240 hc         1 OIC       0.016200
     22 H52         -2.8950     8.8490     3.4920 hc         1 OIC       0.016200
     23 H61         -3.9330     6.8310     1.8250 hc         1 OIC       0.018200
     24 H62         -2.4390     7.7120     1.5620 hc         1 OIC       0.018200
     25 H71         -2.0040     5.2710     1.4070 hc         1 OIC       0.064700
     26 H72         -2.7010     5.0080     3.0000 hc         1 OIC       0.064700
@<TRIPOS>BOND
     1     1     2 1   
     2     1     8 1   
     3     1    13 1   
     4     2     3 1   
     5     2     6 1   
     6     2    14 1   
     7     3     4 1   
     8     3     5 1   
     9     6     7 1   
    10     6    15 1   
    11     6    16 1   
    12     7     8 1   
    13     7     9 1   
    14     7    17 1   
    15     8    12 1   
    16     8    18 1   
    17     9    10 1   
    18     9    19 1   
    19     9    20 1   
    20    10    11 1   
    21    10    21 1   
    22    10    22 1   
    23    11    12 1   
    24    11    23 1   
    25    11    24 1   
    26    12    25 1   
    27    12    26 1   
@<TRIPOS>SUBSTRUCTURE
     1 OIC         1 TEMP              0 ****  ****    0 ROOT
