@<TRIPOS>MOLECULE
OID
   38    38     1     0     0
SMALL
No Charge or Current Charge


@<TRIPOS>ATOM
      1 O17          7.5980    -0.8300     1.0210 o          1 OID      -0.743000
      2 C2           7.1630    -0.3790    -0.0290 c          1 OID       0.717000
      3 O1           7.5990    -0.6880    -1.1280 o          1 OID      -0.743000
      4 C3           5.9630     0.5830     0.0340 c3         1 OID      -0.204400
      5 C4           4.6360    -0.2120    -0.0190 c3         1 OID      -0.054400
      6 C5           3.3830     0.6900     0.0400 c3         1 OID      -0.079400
      7 C6           2.0610    -0.1060    -0.0130 c3         1 OID      -0.075400
      8 C7           0.8090     0.7960     0.0460 c3         1 OID      -0.075400
      9 C8          -0.5140     0.0000    -0.0080 c3         1 OID      -0.074400
     10 C9          -1.7650     0.9030     0.0520 c3         1 OID      -0.074400
     11 C10         -3.0870     0.1070    -0.0020 c3         1 OID      -0.098400
     12 C11         -4.3350     1.0110     0.0580 c3         1 OID       0.069600
     13 N12         -5.5920     0.2500     0.0080 na         1 OID      -0.163500
     14 C16         -6.3220    -0.0430    -1.1260 cc         1 OID       0.386400
     15 N15         -7.4030    -0.7480    -0.8190 nd         1 OID      -0.680000
     16 C14         -7.3650    -0.9140     0.5510 cd         1 OID       0.221900
     17 C13         -6.2560    -0.3060     1.0800 cc         1 OID      -0.232000
     18 H3           5.9520     1.1210     0.9910 hc         1 OID       0.014200
     19 H3A          5.9530     1.2430    -0.8430 hc         1 OID       0.014200
     20 H4           4.6080    -0.8060    -0.9410 hc         1 OID       0.038700
     21 H4A          4.6080    -0.9220     0.8170 hc         1 OID       0.038700
     22 H5           3.4090     1.2820     0.9630 hc         1 OID       0.023700
     23 H5A          3.4100     1.3990    -0.7970 hc         1 OID       0.023700
     24 H6           2.0340    -0.6990    -0.9360 hc         1 OID       0.034700
     25 H6A          2.0330    -0.8150     0.8240 hc         1 OID       0.034700
     26 H7           0.8350     1.3890     0.9690 hc         1 OID       0.032700
     27 H7A          0.8360     1.5050    -0.7910 hc         1 OID       0.032700
     28 H8          -0.5400    -0.5920    -0.9310 hc         1 OID       0.038700
     29 H8A         -0.5410    -0.7090     0.8290 hc         1 OID       0.038700
     30 H9          -1.7390     1.4960     0.9750 hc         1 OID       0.036700
     31 H9A         -1.7380     1.6120    -0.7850 hc         1 OID       0.036700
     32 H10         -3.1160    -0.4850    -0.9250 hc         1 OID       0.053200
     33 H10A        -3.1170    -0.6020     0.8360 hc         1 OID       0.053200
     34 H11         -4.3180     1.5960     0.9860 h1         1 OID       0.057700
     35 H11A        -4.3170     1.7160    -0.7830 h1         1 OID       0.057700
     36 H16         -6.0180     0.2780    -2.1160 h5         1 OID       0.051100
     37 H14         -8.1360    -1.4610     1.0790 h4         1 OID       0.033100
     38 H13         -5.9070    -0.2350     2.1020 h4         1 OID       0.155000
@<TRIPOS>BOND
     1     1     2 1   
     2     2     3 1   
     3     2     4 1   
     4     4     5 1   
     5     4    18 1   
     6     4    19 1   
     7     5     6 1   
     8     5    20 1   
     9     5    21 1   
    10     6     7 1   
    11     6    22 1   
    12     6    23 1   
    13     7     8 1   
    14     7    24 1   
    15     7    25 1   
    16     8     9 1   
    17     8    26 1   
    18     8    27 1   
    19     9    10 1   
    20     9    28 1   
    21     9    29 1   
    22    10    11 1   
    23    10    30 1   
    24    10    31 1   
    25    11    12 1   
    26    11    32 1   
    27    11    33 1   
    28    12    13 1   
    29    12    34 1   
    30    12    35 1   
    31    13    14 1   
    32    13    17 1   
    33    14    15 2   
    34    14    36 1   
    35    15    16 1   
    36    16    17 2   
    37    16    37 1   
    38    17    38 1   
@<TRIPOS>SUBSTRUCTURE
     1 OID         1 TEMP              0 ****  ****    0 ROOT
