@<TRIPOS>MOLECULE
OID
   38    38     1     0     0
SMALL
abcg2


@<TRIPOS>ATOM
      1 O17          7.0420    -1.5480     0.1470 o          1 OID      -0.743000
      2 C2           7.1470    -0.3130     0.0090 c          1 OID       0.717000
      3 O1           8.2140     0.3260    -0.1130 o          1 OID      -0.743000
      4 C3           5.8550     0.5230    -0.0070 c3         1 OID      -0.204400
      5 C4           4.5510    -0.2580     0.0130 c3         1 OID      -0.054400
      6 C5           3.3210     0.6420    -0.0050 c3         1 OID      -0.079400
      7 C6           2.0100    -0.1340     0.0060 c3         1 OID      -0.075400
      8 C7           0.7770     0.7620    -0.0100 c3         1 OID      -0.075400
      9 C8          -0.5320    -0.0160     0.0080 c3         1 OID      -0.074400
     10 C9          -1.7620     0.8830    -0.0180 c3         1 OID      -0.074400
     11 C10         -3.0680     0.1000     0.0180 c3         1 OID      -0.098400
     12 C11         -4.2780     1.0230    -0.0220 c3         1 OID       0.069600
     13 N12         -5.5330     0.2990     0.0140 na         1 OID      -0.163500
     14 C16         -6.2990    -0.0330    -1.0460 cc         1 OID       0.386400
     15 N15         -7.3370    -0.7510    -0.6990 nd         1 OID      -0.680000
     16 C14         -7.2340    -0.8980     0.6550 cd         1 OID       0.221900
     17 C13         -6.1190    -0.2570     1.1160 cc         1 OID      -0.232000
     18 H3           5.8850     1.2070     0.8510 hc         1 OID       0.014200
     19 H3A          5.8800     1.1770    -0.8860 hc         1 OID       0.014200
     20 H4           4.5110    -0.9350    -0.8460 hc         1 OID       0.038700
     21 H4A          4.5160    -0.8970     0.8990 hc         1 OID       0.038700
     22 H5           3.3490     1.3170     0.8590 hc         1 OID       0.023700
     23 H5A          3.3520     1.2870    -0.8910 hc         1 OID       0.023700
     24 H6           1.9790    -0.8070    -0.8580 hc         1 OID       0.034700
     25 H6A          1.9770    -0.7790     0.8920 hc         1 OID       0.034700
     26 H7           0.8090     1.4390     0.8510 hc         1 OID       0.032700
     27 H7A          0.8070     1.4020    -0.8990 hc         1 OID       0.032700
     28 H8          -0.5630    -0.6970    -0.8500 hc         1 OID       0.038700
     29 H8A         -0.5660    -0.6500     0.9010 hc         1 OID       0.038700
     30 H9          -1.7250     1.5710     0.8340 hc         1 OID       0.036700
     31 H9A         -1.7340     1.5090    -0.9170 hc         1 OID       0.036700
     32 H10         -3.1130    -0.5890    -0.8310 hc         1 OID       0.053200
     33 H10A        -3.1060    -0.5120     0.9240 hc         1 OID       0.053200
     34 H11         -4.2570     1.7160     0.8200 h1         1 OID       0.057700
     35 H11A        -4.2680     1.6250    -0.9320 h1         1 OID       0.057700
     36 H16         -6.0520     0.2830    -2.0490 h5         1 OID       0.051100
     37 H14         -7.9650    -1.4490     1.2270 h4         1 OID       0.033100
     38 H13         -5.7070    -0.1440     2.1050 h4         1 OID       0.155000
@<TRIPOS>BOND
     1     1     2 1   
     2     2     3 1   
     3     2     4 1   
     4     4     5 1   
     5     4    18 1   
     6     4    19 1   
     7     5     6 1   
     8     5    20 1   
     9     5    21 1   
    10     6     7 1   
    11     6    22 1   
    12     6    23 1   
    13     7     8 1   
    14     7    24 1   
    15     7    25 1   
    16     8     9 1   
    17     8    26 1   
    18     8    27 1   
    19     9    10 1   
    20     9    28 1   
    21     9    29 1   
    22    10    11 1   
    23    10    30 1   
    24    10    31 1   
    25    11    12 1   
    26    11    32 1   
    27    11    33 1   
    28    12    13 1   
    29    12    34 1   
    30    12    35 1   
    31    13    14 1   
    32    13    17 1   
    33    14    15 2   
    34    14    36 1   
    35    15    16 1   
    36    16    17 2   
    37    16    37 1   
    38    17    38 1   
@<TRIPOS>SUBSTRUCTURE
     1 OID         1 TEMP              0 ****  ****    0 ROOT
