@<TRIPOS>MOLECULE
OIE
   33    35     1     0     0
SMALL
abcg2


@<TRIPOS>ATOM
      1 N1           8.2080    -0.0190    20.6860 ns         1 OIE      -0.153000
      2 C4          10.0030    -0.4810    22.2360 c3         1 OIE      -0.210700
      3 C5           9.5450     0.1260    20.9110 c          1 OIE       0.604100
      4 C6           7.4520     0.5030    19.6230 ca         1 OIE      -0.067000
      5 C7           7.9920     0.7300    18.3760 ca         1 OIE       0.310900
      6 C8           6.0000     1.4570    17.4990 ca         1 OIE       0.338900
      7 C10          3.9490     1.5490    18.8720 ca         1 OIE      -0.079000
      8 C13          5.4040     0.6230    21.0800 ca         1 OIE      -0.112000
      9 C15         12.0390    -1.8530    21.7190 ca         1 OIE      -0.144000
     10 O           10.3070     0.7100    20.1550 o          1 OIE      -0.558100
     11 C3          11.4880    -0.7010    22.2790 ca         1 OIE       0.369300
     12 N           12.2350     0.2500    22.8490 nb         1 OIE      -0.654000
     13 C2          13.5590     0.0800    22.8720 ca         1 OIE       0.351900
     14 C1          14.2070    -1.0270    22.3410 ca         1 OIE      -0.152000
     15 C           13.4140    -2.0040    21.7570 ca         1 OIE       0.159000
     16 CL          14.1490    -3.4270    21.0720 cl         1 OIE      -0.191000
     17 C14          6.0700     0.7830    19.8410 ca         1 OIE      -0.034000
     18 C12          4.0650     0.9090    21.1900 ca         1 OIE      -0.090000
     19 C11          3.3260     1.3700    20.0800 ca         1 OIE      -0.110000
     20 C9           5.3260     1.2650    18.7280 ca         1 OIE      -0.082000
     21 N2           7.2770     1.2080    17.3260 nb         1 OIE      -0.640000
     22 H1           7.6930    -0.5110    21.3990 hn         1 OIE       0.150000
     23 H2           9.7190     0.2170    23.0260 hc         1 OIE       0.078200
     24 H3           9.4690    -1.4160    22.4120 hc         1 OIE       0.078200
     25 H4           9.0350     0.5260    18.1920 h4         1 OIE       0.048100
     26 H5           5.4410     1.8290    16.6450 h4         1 OIE       0.022100
     27 H6           3.4000     1.9120    18.0110 ha         1 OIE       0.120000
     28 H7           5.9400     0.2880    21.9570 ha         1 OIE       0.107000
     29 H9          14.1400     0.8660    23.3420 h4         1 OIE       0.027100
     30 H10         15.2820    -1.1210    22.3860 ha         1 OIE       0.141000
     31 H11          3.5700     0.7850    22.1450 ha         1 OIE       0.115000
     32 H12          2.2720     1.5870    20.1900 ha         1 OIE       0.119000
     33 H8          11.4060    -2.6060    21.2680 ha         1 OIE       0.137000
@<TRIPOS>BOND
     1     1     3 1   
     2     1     4 1   
     3     1    22 1   
     4     2     3 1   
     5     2    11 1   
     6     2    23 1   
     7     2    24 1   
     8     3    10 2   
     9     4     5 ar  
    10     4    17 ar  
    11     5    21 ar  
    12     5    25 1   
    13     6    20 ar  
    14     6    21 ar  
    15     6    26 1   
    16     7    19 ar  
    17     7    20 ar  
    18     7    27 1   
    19     8    17 ar  
    20     8    18 ar  
    21     8    28 1   
    22     9    11 ar  
    23     9    15 ar  
    24     9    33 1   
    25    11    12 ar  
    26    12    13 ar  
    27    13    14 ar  
    28    13    29 1   
    29    14    15 ar  
    30    14    30 1   
    31    15    16 1   
    32    17    20 ar  
    33    18    19 ar  
    34    18    31 1   
    35    19    32 1   
@<TRIPOS>SUBSTRUCTURE
     1 OIE         1 TEMP              0 ****  ****    0 ROOT
