@<TRIPOS>MOLECULE
OIE
   33    35     1     0     0
SMALL
No Charge or Current Charge


@<TRIPOS>ATOM
      1 N1           8.6220     1.2440    20.8900 ns         1 OIE      -0.153000
      2 C4          10.5080     1.2630    22.4540 c3         1 OIE      -0.210700
      3 C5           9.9560     1.5880    21.0730 c          1 OIE       0.604100
      4 C6           7.7460     1.3920    19.7740 ca         1 OIE      -0.067000
      5 C7           8.0580     2.2280    18.6710 ca         1 OIE       0.310900
      6 C8           6.0690     1.7270    17.5940 ca         1 OIE       0.338900
      7 C10          4.4210     0.2120    18.5740 ca         1 OIE      -0.079000
      8 C13          6.0980    -0.1510    20.8050 ca         1 OIE      -0.112000
      9 C15         10.7470    -1.2510    22.1580 ca         1 OIE      -0.144000
     10 O           10.6550     2.0930    20.2050 o          1 OIE      -0.558100
     11 C3          11.3430     0.0050    22.3700 ca         1 OIE       0.369300
     12 N           12.6770     0.1590    22.5290 nb         1 OIE      -0.654000
     13 C2          13.4610    -0.9430    22.4680 ca         1 OIE       0.351900
     14 C1          12.9480    -2.2300    22.2520 ca         1 OIE      -0.152000
     15 C           11.5660    -2.3850    22.0960 ca         1 OIE       0.159000
     16 Cl          10.8690    -3.9760    21.8290 cl         1 OIE      -0.191000
     17 C14          6.5080     0.7040    19.7560 ca         1 OIE      -0.034000
     18 C12          4.8600    -0.8140    20.7350 ca         1 OIE      -0.090000
     19 C11          4.0230    -0.6330    19.6220 ca         1 OIE      -0.110000
     20 C9           5.6600     0.8790    18.6390 ca         1 OIE      -0.082000
     21 N2           7.2440     2.3950    17.6020 nb         1 OIE      -0.640000
     22 H1           8.1890     0.8170    21.6980 hn         1 OIE       0.150000
     23 H2          11.1220     2.1040    22.7940 hc         1 OIE       0.078200
     24 H3           9.6890     1.0960    23.1620 hc         1 OIE       0.078200
     25 H4           8.9790     2.8040    18.6340 h4         1 OIE       0.048100
     26 H5           5.4360     1.8810    16.7200 h4         1 OIE       0.022100
     27 H6           3.7680     0.3480    17.7140 ha         1 OIE       0.120000
     28 H7           6.7240    -0.3150    21.6780 ha         1 OIE       0.107000
     29 H9          14.5310    -0.7860    22.5960 h4         1 OIE       0.027100
     30 H10         13.6150    -3.0850    22.2110 ha         1 OIE       0.141000
     31 H11          4.5500    -1.4710    21.5450 ha         1 OIE       0.115000
     32 H12          3.0660    -1.1480    19.5720 ha         1 OIE       0.119000
     33 H8           9.6720    -1.3450    22.0460 ha         1 OIE       0.137000
@<TRIPOS>BOND
     1     1     3 1   
     2     1     4 1   
     3     1    22 1   
     4     2     3 1   
     5     2    11 1   
     6     2    23 1   
     7     2    24 1   
     8     3    10 2   
     9     4     5 ar  
    10     4    17 ar  
    11     5    21 ar  
    12     5    25 1   
    13     6    20 ar  
    14     6    21 ar  
    15     6    26 1   
    16     7    19 ar  
    17     7    20 ar  
    18     7    27 1   
    19     8    17 ar  
    20     8    18 ar  
    21     8    28 1   
    22     9    11 ar  
    23     9    15 ar  
    24     9    33 1   
    25    11    12 ar  
    26    12    13 ar  
    27    13    14 ar  
    28    13    29 1   
    29    14    15 ar  
    30    14    30 1   
    31    15    16 1   
    32    17    20 ar  
    33    18    19 ar  
    34    18    31 1   
    35    19    32 1   
@<TRIPOS>SUBSTRUCTURE
     1 OIE         1 TEMP              0 ****  ****    0 ROOT
