@<TRIPOS>MOLECULE
OIF
   24    25     1     0     0
SMALL
No Charge or Current Charge


@<TRIPOS>ATOM
      1 C11         12.4730   -13.1330    -3.2400 ca         1 OIF       0.139400
      2 C12         11.4850   -13.5210    -4.1600 ca         1 OIF      -0.078000
      3 C13         11.4980   -14.8320    -4.6800 ca         1 OIF      -0.116000
      4 C14         12.4960   -15.7430    -4.2760 ca         1 OIF      -0.136000
      5 C15         13.4830   -15.3460    -3.3540 ca         1 OIF      -0.064000
      6 C16         13.4440   -14.0350    -2.8550 ca         1 OIF      -0.237000
      7 C02         14.8280   -10.3590    -0.3060 c          1 OIF       0.655100
      8 O03         15.6760   -11.1550     0.0610 o          1 OIF      -0.603100
      9 C04         14.8670    -8.9320     0.1360 c3         1 OIF      -0.435400
     10 S05         13.5890    -8.6170     1.3050 s6         1 OIF       1.321600
     11 O06         12.3660    -8.7980     0.5160 o          1 OIF      -0.679533
     12 O07         13.8500    -7.2340     1.7220 o          1 OIF      -0.679533
     13 O08         13.8060    -9.6250     2.3500 o          1 OIF      -0.679533
     14 C09         13.5980   -11.8470    -1.8510 cc         1 OIF       0.489800
     15 N10         12.5440   -11.8660    -2.6740 nd         1 OIF      -0.617100
     16 S17         14.5720   -13.3400    -1.7040 ss         1 OIF       0.089800
     17 H121        10.7180   -12.8150    -4.4680 ha         1 OIF       0.125000
     18 H131        10.7360   -15.1400    -5.3920 ha         1 OIF       0.101000
     19 H141        12.5050   -16.7540    -4.6780 ha         1 OIF       0.099000
     20 H151        14.2570   -16.0420    -3.0370 ha         1 OIF       0.111000
     21 H011        13.1840    -9.9210    -1.3830 hn         1 OIF       0.394500
     22 H041        15.8150    -8.7250     0.6380 h1         1 OIF       0.102200
     23 H042        14.7160    -8.2550    -0.7090 h1         1 OIF       0.102200
     24 N01         13.8360   -10.6670    -1.1970 ns         1 OIF      -0.407400
@<TRIPOS>BOND
     1     1     2 ar  
     2     1     6 ar  
     3     1    15 1   
     4     2     3 ar  
     5     2    17 1   
     6     3     4 ar  
     7     3    18 1   
     8     4     5 ar  
     9     4    19 1   
    10     5     6 ar  
    11     5    20 1   
    12     6    16 1   
    13     7     8 2   
    14     7     9 1   
    15     7    24 1   
    16     9    10 1   
    17     9    22 1   
    18     9    23 1   
    19    10    11 1   
    20    10    12 1   
    21    10    13 1   
    22    14    15 2   
    23    14    16 1   
    24    14    24 1   
    25    21    24 1   
@<TRIPOS>SUBSTRUCTURE
     1 OIF         1 TEMP              0 ****  ****    0 ROOT
