@<TRIPOS>MOLECULE
OIF
   24    25     1     0     0
SMALL
abcg2


@<TRIPOS>ATOM
      1 C11         12.3820   -13.1570    -3.1440 ca         1 OIF       0.139400
      2 C12         11.3730   -13.6040    -3.9980 ca         1 OIF      -0.078000
      3 C13         11.4920   -14.8560    -4.5740 ca         1 OIF      -0.116000
      4 C14         12.5980   -15.6690    -4.3110 ca         1 OIF      -0.136000
      5 C15         13.6070   -15.2410    -3.4640 ca         1 OIF      -0.064000
      6 C16         13.4860   -13.9830    -2.8890 ca         1 OIF      -0.237000
      7 C02         14.8680   -10.4680    -0.3530 c          1 OIF       0.655100
      8 O03         15.7190   -11.3250    -0.2230 o          1 OIF      -0.603100
      9 C04         15.0010    -9.0890     0.2380 c3         1 OIF      -0.435400
     10 S05         13.5190    -8.4910     1.1020 s6         1 OIF       1.321600
     11 O06         12.4760    -8.4270     0.0510 o          1 OIF      -0.679533
     12 O07         13.8990    -7.1720     1.6220 o          1 OIF      -0.679533
     13 O08         13.2470    -9.5040     2.1310 o          1 OIF      -0.679533
     14 C09         13.4800   -11.8190    -1.8040 cc         1 OIF       0.489800
     15 N10         12.4100   -11.9370    -2.5110 nd         1 OIF      -0.617100
     16 S17         14.5830   -13.1760    -1.8090 ss         1 OIF       0.089800
     17 H121        10.5190   -12.9720    -4.2030 ha         1 OIF       0.125000
     18 H131        10.7170   -15.2110    -5.2410 ha         1 OIF       0.101000
     19 H141        12.6690   -16.6440    -4.7740 ha         1 OIF       0.099000
     20 H151        14.4630   -15.8710    -3.2620 ha         1 OIF       0.111000
     21 H011        13.0330    -9.9490    -1.1070 hn         1 OIF       0.394500
     22 H041        15.8300    -9.0860     0.9440 h1         1 OIF       0.102200
     23 H042        15.2260    -8.3760    -0.5600 h1         1 OIF       0.102200
     24 N01         13.7460   -10.6780    -1.0980 ns         1 OIF      -0.407400
@<TRIPOS>BOND
     1     1     2 ar  
     2     1     6 ar  
     3     1    15 1   
     4     2     3 ar  
     5     2    17 1   
     6     3     4 ar  
     7     3    18 1   
     8     4     5 ar  
     9     4    19 1   
    10     5     6 ar  
    11     5    20 1   
    12     6    16 1   
    13     7     8 2   
    14     7     9 1   
    15     7    24 1   
    16     9    10 1   
    17     9    22 1   
    18     9    23 1   
    19    10    11 1   
    20    10    12 1   
    21    10    13 1   
    22    14    15 2   
    23    14    16 1   
    24    14    24 1   
    25    21    24 1   
@<TRIPOS>SUBSTRUCTURE
     1 OIF         1 TEMP              0 ****  ****    0 ROOT
