@<TRIPOS>MOLECULE
OIG
   46    48     1     0     0
SMALL
No Charge or Current Charge


@<TRIPOS>ATOM
      1 C4          20.2990    -7.1820    -8.3270 c5         1 OIG       0.154300
      2 C1          21.7730    -5.4800    -7.6560 c5         1 OIG       0.288300
      3 C8          21.7120    -4.3850    -5.3550 cc         1 OIG       0.473700
      4 C6          22.5090    -0.9800    -5.9480 ca         1 OIG       0.431900
      5 C2          22.4120    -6.8320    -7.2020 c5         1 OIG       0.084300
      6 C3          21.7540    -7.7760    -8.2470 c5         1 OIG       0.152300
      7 C05         19.5250   -10.6350    -2.8140 c3         1 OIG       0.237600
      8 C06         21.0100   -11.0120    -2.6680 c3         1 OIG      -0.086100
      9 C5          19.2280    -7.9520    -7.4930 c3         1 OIG       0.216600
     10 C10         22.2080    -2.3590    -5.9020 ca         1 OIG      -0.079600
     11 C9          22.6740    -1.1330    -8.2250 ca         1 OIG       0.145900
     12 C7          22.1640    -3.0510    -7.0860 ca         1 OIG       0.110500
     13 N9          21.8590    -4.3390    -6.7480 na         1 OIG      -0.285300
     14 N7          21.9300    -3.1740    -4.8000 nd         1 OIG      -0.572100
     15 N6          22.5740    -0.2000    -4.8360 nv         1 OIG      -1.079900
     16 N1          22.7410    -0.3590    -7.1140 nb         1 OIG      -0.327000
     17 N3          22.3970    -2.4580    -8.2740 nb         1 OIG      -0.207000
     18 O1B         17.4870   -10.2450    -6.0720 o          1 OIG      -0.859000
     19 O2B         16.7460   -10.4300    -3.7530 o          1 OIG      -0.859000
     20 O3B         19.2500   -10.4680    -4.2070 os         1 OIG      -0.609400
     21 O3A         17.9610    -8.3420    -4.4460 os         1 OIG      -0.726800
     22 O1A         20.3070    -7.5900    -3.7980 o          1 OIG      -0.852000
     23 O2A         18.9020    -6.1260    -5.1450 o          1 OIG      -0.852000
     24 O5          19.7510    -8.2970    -6.1960 os         1 OIG      -0.616400
     25 O4          20.3900    -5.7960    -7.8950 os         1 OIG      -0.437000
     26 O2          23.8570    -6.8710    -7.3010 oh         1 OIG      -0.733000
     27 O3          22.4770    -7.6760    -9.4840 oh         1 OIG      -0.738000
     28 PB          17.8120    -9.9000    -4.6560 p5         1 OIG       1.476800
     29 PA          19.2600    -7.5440    -4.8580 p5         1 OIG       1.464800
     30 H4          19.9520    -7.1830    -9.3690 h1         1 OIG       0.057700
     31 H1          22.2330    -5.1580    -8.6000 h2         1 OIG       0.080700
     32 H8          21.4670    -5.2970    -4.8220 h5         1 OIG       0.128800
     33 H2          22.0790    -7.1020    -6.1890 h1         1 OIG       0.108700
     34 H3          21.7430    -8.8170    -7.8900 h1         1 OIG       0.092700
     35 H6          19.3230    -9.7120    -2.2560 h1         1 OIG       0.014700
     36 H7          18.9080   -11.4390    -2.3900 h1         1 OIG       0.014700
     37 H11         21.2620   -11.1500    -1.6110 hc         1 OIG       0.016033
     38 H9          21.2270   -11.9480    -3.1970 hc         1 OIG       0.016033
     39 H10         21.6540   -10.2220    -3.0740 hc         1 OIG       0.016033
     40 H5'1        18.3160    -7.3450    -7.4210 h1         1 OIG       0.055200
     41 H5'2        18.9670    -8.8670    -8.0390 h1         1 OIG       0.055200
     42 H12         22.8630    -0.6390    -9.1770 h5         1 OIG       0.023100
     43 HN61        22.5060     0.8070    -4.9560 hn         1 OIG       0.495000
     44 HN62        22.1930    -0.5860    -3.9750 hn         1 OIG       0.495000
     45 HO2         24.2270    -6.3250    -6.5650 ho         1 OIG       0.510000
     46 HO3         23.3920    -7.4480    -9.1790 ho         1 OIG       0.505000
@<TRIPOS>BOND
     1     1     6 1   
     2     1     9 1   
     3     1    25 1   
     4     1    30 1   
     5     2     5 1   
     6     2    13 1   
     7     2    25 1   
     8     2    31 1   
     9     3    13 1   
    10     3    14 2   
    11     3    32 1   
    12     4    10 ar  
    13     4    15 1   
    14     4    16 ar  
    15     5     6 1   
    16     5    26 1   
    17     5    33 1   
    18     6    27 1   
    19     6    34 1   
    20     7     8 1   
    21     7    20 1   
    22     7    35 1   
    23     7    36 1   
    24     8    37 1   
    25     8    38 1   
    26     8    39 1   
    27     9    24 1   
    28     9    40 1   
    29     9    41 1   
    30    10    12 ar  
    31    10    14 1   
    32    11    16 ar  
    33    11    17 ar  
    34    11    42 1   
    35    12    13 1   
    36    12    17 ar  
    37    15    43 1   
    38    15    44 1   
    39    18    28 1   
    40    19    28 1   
    41    20    28 1   
    42    21    28 1   
    43    21    29 1   
    44    22    29 1   
    45    23    29 1   
    46    24    29 1   
    47    26    45 1   
    48    27    46 1   
@<TRIPOS>SUBSTRUCTURE
     1 OIG         1 TEMP              0 ****  ****    0 ROOT
