@<TRIPOS>MOLECULE
OIG
   46    48     1     0     0
SMALL
abcg2


@<TRIPOS>ATOM
      1 C4          20.1810    -7.0280    -8.5960 c5         1 OIG       0.154300
      2 C1          21.7400    -5.3920    -8.0390 c5         1 OIG       0.288300
      3 C8          21.7290    -4.7320    -5.5970 cc         1 OIG       0.473700
      4 C6          22.4960    -1.3130    -5.5680 ca         1 OIG       0.431900
      5 C2          22.4320    -6.7510    -7.8770 c5         1 OIG       0.084300
      6 C3          21.5770    -7.6200    -8.7950 c5         1 OIG       0.152300
      7 C05         19.4270   -10.3000    -2.3360 c3         1 OIG       0.237600
      8 C06         20.7440   -10.4260    -1.6030 c3         1 OIG      -0.086100
      9 C5          19.3200    -7.7470    -7.5810 c3         1 OIG       0.216600
     10 C10         22.2070    -2.6800    -5.7350 ca         1 OIG      -0.079600
     11 C9          22.7460    -1.1870    -7.8510 ca         1 OIG       0.145900
     12 C7          22.2250    -3.1580    -7.0340 ca         1 OIG       0.110500
     13 N9          21.9240    -4.4890    -6.9330 na         1 OIG      -0.285300
     14 N7          21.8940    -3.6810    -4.8520 nd         1 OIG      -0.572100
     15 N6          22.5240    -0.7220    -4.3710 nv         1 OIG      -1.079900
     16 N1          22.7650    -0.5910    -6.6610 nb         1 OIG      -0.327000
     17 N3          22.4880    -2.4530    -8.1320 nb         1 OIG      -0.207000
     18 O1B         18.9190   -10.8000    -6.0950 o          1 OIG      -0.859000
     19 O2B         17.1400   -10.9090    -4.1880 o          1 OIG      -0.859000
     20 O3B         19.6400   -10.5470    -3.7160 os         1 OIG      -0.609400
     21 O3A         18.1830    -8.7120    -4.7570 os         1 OIG      -0.726800
     22 O1A         20.2810    -7.4620    -3.8970 o          1 OIG      -0.852000
     23 O2A         18.3390    -6.2440    -5.1380 o          1 OIG      -0.852000
     24 O5          19.9810    -7.8200    -6.3400 os         1 OIG      -0.616400
     25 O4          20.3770    -5.6680    -8.1990 os         1 OIG      -0.437000
     26 O2          23.7680    -6.7530    -8.2830 oh         1 OIG      -0.733000
     27 O3          21.9330    -7.4420   -10.1450 oh         1 OIG      -0.738000
     28 PB          18.4020   -10.3510    -4.7670 p5         1 OIG       1.476800
     29 PA          19.2080    -7.4470    -4.9400 p5         1 OIG       1.464800
     30 H4          19.6410    -7.0480    -9.5500 h1         1 OIG       0.057700
     31 H1          22.1480    -4.8770    -8.9160 h2         1 OIG       0.080700
     32 H8          21.4760    -5.7110    -5.2190 h5         1 OIG       0.128800
     33 H2          22.3180    -7.1120    -6.8510 h1         1 OIG       0.108700
     34 H3          21.6180    -8.6770    -8.5050 h1         1 OIG       0.092700
     35 H6          19.0190    -9.2970    -2.1780 h1         1 OIG       0.014700
     36 H7          18.7040   -11.0130    -1.9280 h1         1 OIG       0.014700
     37 H11         20.5930   -10.2470    -0.5380 hc         1 OIG       0.016033
     38 H9          21.1710   -11.4230    -1.7170 hc         1 OIG       0.016033
     39 H10         21.4680    -9.6970    -1.9670 hc         1 OIG       0.016033
     40 H5'1        18.3620    -7.2240    -7.5050 h1         1 OIG       0.055200
     41 H5'2        19.1090    -8.7550    -7.9510 h1         1 OIG       0.055200
     42 H12         22.9710    -0.5460    -8.6960 h5         1 OIG       0.023100
     43 HN61        22.6600     0.2720    -4.3030 hn         1 OIG       0.495000
     44 HN62        22.2470    -1.2200    -3.5430 hn         1 OIG       0.495000
     45 HO2         24.3120    -6.3810    -7.5820 ho         1 OIG       0.510000
     46 HO3         22.8700    -7.6410   -10.2410 ho         1 OIG       0.505000
@<TRIPOS>BOND
     1     1     6 1   
     2     1     9 1   
     3     1    25 1   
     4     1    30 1   
     5     2     5 1   
     6     2    13 1   
     7     2    25 1   
     8     2    31 1   
     9     3    13 1   
    10     3    14 2   
    11     3    32 1   
    12     4    10 ar  
    13     4    15 1   
    14     4    16 ar  
    15     5     6 1   
    16     5    26 1   
    17     5    33 1   
    18     6    27 1   
    19     6    34 1   
    20     7     8 1   
    21     7    20 1   
    22     7    35 1   
    23     7    36 1   
    24     8    37 1   
    25     8    38 1   
    26     8    39 1   
    27     9    24 1   
    28     9    40 1   
    29     9    41 1   
    30    10    12 ar  
    31    10    14 1   
    32    11    16 ar  
    33    11    17 ar  
    34    11    42 1   
    35    12    13 1   
    36    12    17 ar  
    37    15    43 1   
    38    15    44 1   
    39    18    28 1   
    40    19    28 1   
    41    20    28 1   
    42    21    28 1   
    43    21    29 1   
    44    22    29 1   
    45    23    29 1   
    46    24    29 1   
    47    26    45 1   
    48    27    46 1   
@<TRIPOS>SUBSTRUCTURE
     1 OIG         1 TEMP              0 ****  ****    0 ROOT
