@<TRIPOS>MOLECULE
OIH
   68    71     1     0     0
SMALL
abcg2


@<TRIPOS>ATOM
      1 C10         22.3010    -6.6790    21.5080 cc         1 OIH      -0.175600
      2 C13         22.4070    -5.3690    14.4530 c3         1 OIH       0.197800
      3 C15         23.7850    -3.2550    14.4750 c3         1 OIH      -0.079100
      4 C17         22.6310    -8.3610    13.7710 c6         1 OIH      -0.091400
      5 C20         25.4310    -9.2150    13.6740 c6         1 OIH      -0.071900
      6 C21         24.9480    -8.1890    14.6960 c6         1 OIH      -0.091400
      7 C22         26.1900    -5.1060    17.6500 c          1 OIH       0.664100
      8 C24         29.5170    -4.1590    16.8600 ca         1 OIH       0.133000
      9 C26         30.5590    -2.6100    18.3210 ca         1 OIH       0.122000
     10 C28         28.1850    -2.8910    18.3660 ca         1 OIH      -0.071000
     11 C1          21.6140    -7.5100    18.1060 ca         1 OIH      -0.137000
     12 C2          21.8890    -7.2250    16.7760 ca         1 OIH      -0.107000
     13 C3          23.0800    -6.6280    16.3920 ca         1 OIH       0.147000
     14 C4          24.0250    -6.2960    17.3860 ca         1 OIH       0.011000
     15 C5          23.7650    -6.6020    18.7180 ca         1 OIH      -0.106000
     16 C6          22.5570    -7.1890    19.0660 ca         1 OIH       0.096800
     17 C7          22.1970    -8.8170    20.8420 cc         1 OIH      -0.248000
     18 C8          22.0980    -8.8200    22.2100 cd         1 OIH      -0.196000
     19 C9          22.1690    -7.4710    22.6270 cd         1 OIH      -0.195000
     20 C11         22.2830    -5.1730    21.4370 c          1 OIH       0.733600
     21 C12         23.7600    -7.3980    14.1530 c6         1 OIH       0.209500
     22 C14         22.5280    -3.9440    14.9920 c3         1 OIH      -0.070700
     23 C16         21.2850    -3.1440    14.6150 c3         1 OIH      -0.079100
     24 C18         23.1090    -9.3670    12.7280 c6         1 OIH      -0.071900
     25 C19         24.3120   -10.1530    13.2380 c6         1 OIH      -0.075400
     26 C23         28.2560    -3.8550    17.3640 ca         1 OIH      -0.039000
     27 C25         30.6700    -3.5480    17.3080 ca         1 OIH      -0.139000
     28 C27         29.3250    -2.2760    18.8550 ca         1 OIH      -0.100000
     29 N2          22.3140    -7.5230    20.4200 na         1 OIH       0.115200
     30 N4          27.1220    -4.4880    16.8510 ns         1 OIH      -0.183000
     31 O1          22.0130    -4.6550    20.3370 o          1 OIH      -0.713000
     32 O2          22.5120    -4.5910    22.5140 o          1 OIH      -0.713000
     33 O3          26.2810    -5.1340    18.8630 o          1 OIH      -0.582100
     34 H1          21.3750    -5.7220    14.5870 h1         1 OIH       0.026200
     35 H2          22.5790    -5.3470    13.3720 h1         1 OIH       0.026200
     36 H3          23.9110    -2.2690    14.9250 hc         1 OIH       0.027200
     37 H4          24.6890    -3.8280    14.6840 hc         1 OIH       0.027200
     38 H5          23.7290    -3.1190    13.3920 hc         1 OIH       0.027200
     39 H6          21.7690    -7.8060    13.3890 hc         1 OIH       0.049200
     40 H7          22.2910    -8.9050    14.6580 hc         1 OIH       0.049200
     41 H8          26.2650    -9.7840    14.0900 hc         1 OIH       0.033950
     42 H9          25.8220    -8.6870    12.7970 hc         1 OIH       0.033950
     43 H10         25.7690    -7.5130    14.9460 hc         1 OIH       0.049200
     44 H11         24.6620    -8.7020    15.6210 hc         1 OIH       0.049200
     45 H12         27.2220    -2.6090    18.7660 ha         1 OIH       0.155000
     46 H13         20.6720    -7.9600    18.3910 ha         1 OIH       0.123000
     47 H14         21.1440    -7.4530    16.0250 ha         1 OIH       0.099000
     48 H15         24.4830    -6.3760    19.4880 ha         1 OIH       0.170000
     49 H16         22.2270    -9.6320    20.1360 h4         1 OIH       0.117000
     50 H17         21.9910    -9.6940    22.8330 ha         1 OIH       0.103000
     51 H18         22.0980    -7.1040    23.6390 ha         1 OIH       0.132000
     52 H19         24.0950    -6.9100    13.2290 h1         1 OIH       0.041700
     53 H20         22.5760    -3.9900    16.0860 hc         1 OIH       0.088700
     54 H21         20.3810    -3.5880    15.0360 hc         1 OIH       0.027200
     55 H22         21.3520    -2.1170    14.9790 hc         1 OIH       0.027200
     56 H23         21.1610    -3.1010    13.5300 hc         1 OIH       0.027200
     57 H24         22.2950   -10.0450    12.4630 hc         1 OIH       0.033950
     58 H25         23.3830    -8.8360    11.8100 hc         1 OIH       0.033950
     59 H26         24.0040   -10.7700    14.0890 hc         1 OIH       0.036700
     60 H27         24.6730   -10.8400    12.4690 hc         1 OIH       0.036700
     61 H28         31.6270    -3.8160    16.8820 ha         1 OIH       0.138000
     62 H29         29.2450    -1.5330    19.6370 ha         1 OIH       0.137000
     63 H30         25.1470    -5.5380    15.9260 hn         1 OIH       0.169000
     64 H31         27.0790    -4.6260    15.8520 hn         1 OIH       0.155000
     65 N1          23.3760    -6.2900    15.0400 nh         1 OIH      -0.796400
     66 F1          29.6150    -5.0800    15.8930 f          1 OIH      -0.183000
     67 N3          25.1760    -5.6660    16.9320 ns         1 OIH      -0.155000
     68 CL1         31.9890    -1.8430    18.9200 cl         1 OIH      -0.209000
@<TRIPOS>BOND
     1     1    19 2   
     2     1    20 1   
     3     1    29 1   
     4     2    22 1   
     5     2    34 1   
     6     2    35 1   
     7     2    65 1   
     8     3    22 1   
     9     3    36 1   
    10     3    37 1   
    11     3    38 1   
    12     4    21 1   
    13     4    24 1   
    14     4    39 1   
    15     4    40 1   
    16     5     6 1   
    17     5    25 1   
    18     5    41 1   
    19     5    42 1   
    20     6    21 1   
    21     6    43 1   
    22     6    44 1   
    23     7    30 1   
    24     7    33 2   
    25     7    67 1   
    26     8    26 ar  
    27     8    27 ar  
    28     8    66 1   
    29     9    27 ar  
    30     9    28 ar  
    31     9    68 1   
    32    10    26 ar  
    33    10    28 ar  
    34    10    45 1   
    35    11    12 ar  
    36    11    16 ar  
    37    11    46 1   
    38    12    13 ar  
    39    12    47 1   
    40    13    14 ar  
    41    13    65 1   
    42    14    15 ar  
    43    14    67 1   
    44    15    16 ar  
    45    15    48 1   
    46    16    29 1   
    47    17    18 2   
    48    17    29 1   
    49    17    49 1   
    50    18    19 1   
    51    18    50 1   
    52    19    51 1   
    53    20    31 1   
    54    20    32 1   
    55    21    52 1   
    56    21    65 1   
    57    22    23 1   
    58    22    53 1   
    59    23    54 1   
    60    23    55 1   
    61    23    56 1   
    62    24    25 1   
    63    24    57 1   
    64    24    58 1   
    65    25    59 1   
    66    25    60 1   
    67    26    30 1   
    68    27    61 1   
    69    28    62 1   
    70    30    64 1   
    71    63    67 1   
@<TRIPOS>SUBSTRUCTURE
     1 OIH         1 TEMP              0 ****  ****    0 ROOT
