@<TRIPOS>MOLECULE
OIH
   68    71     1     0     0
SMALL
No Charge or Current Charge


@<TRIPOS>ATOM
      1 C10         21.7400    -6.8600    21.6300 cc         1 OIH      -0.175600
      2 C13         22.3660    -5.2030    14.6130 c3         1 OIH       0.197800
      3 C15         24.4910    -3.8660    14.0090 c3         1 OIH      -0.079100
      4 C17         22.7220    -8.4670    13.8940 c6         1 OIH      -0.091400
      5 C20         25.6740    -8.9160    13.8690 c6         1 OIH      -0.071900
      6 C21         25.0200    -7.9290    14.8680 c6         1 OIH      -0.091400
      7 C22         25.9580    -5.1260    17.9230 c          1 OIH       0.664100
      8 C24         28.6960    -3.1480    16.2270 ca         1 OIH       0.133000
      9 C26         30.5360    -2.4380    17.6410 ca         1 OIH       0.122000
     10 C28         28.7020    -3.7350    18.5870 ca         1 OIH      -0.071000
     11 C1          21.3450    -7.7330    18.2350 ca         1 OIH      -0.137000
     12 C2          21.6240    -7.3860    16.9040 ca         1 OIH      -0.107000
     13 C3          22.8070    -6.6990    16.5750 ca         1 OIH       0.147000
     14 C4          23.7090    -6.3300    17.6030 ca         1 OIH       0.011000
     15 C5          23.4200    -6.6820    18.9410 ca         1 OIH      -0.106000
     16 C6          22.2390    -7.3780    19.2600 ca         1 OIH       0.096800
     17 C7          21.9690    -9.0840    20.9800 cc         1 OIH      -0.248000
     18 C8          21.7400    -9.0350    22.3280 cd         1 OIH      -0.196000
     19 C9          21.6030    -7.6850    22.7260 cd         1 OIH      -0.195000
     20 C11         21.6220    -5.3740    21.6650 c          1 OIH       0.733600
     21 C12         23.7050    -7.3330    14.2920 c6         1 OIH       0.209500
     22 C14         23.1210    -3.8540    14.7320 c3         1 OIH      -0.070700
     23 C16         22.2450    -2.6840    14.2320 c3         1 OIH      -0.079100
     24 C18         23.3740    -9.4470    12.8880 c6         1 OIH      -0.071900
     25 C19         24.6880   -10.0370    13.4580 c6         1 OIH      -0.075400
     26 C23         28.0700    -3.7830    17.3210 ca         1 OIH      -0.039000
     27 C25         29.9200    -2.4790    16.3820 ca         1 OIH      -0.139000
     28 C27         29.9290    -3.0640    18.7400 ca         1 OIH      -0.100000
     29 N2          21.9730    -7.7510    20.5780 na         1 OIH       0.115200
     30 N4          26.8290    -4.4430    17.0880 ns         1 OIH      -0.183000
     31 O1          21.7130    -4.7430    20.6240 o          1 OIH      -0.713000
     32 O2          21.4190    -4.8300    22.7420 o          1 OIH      -0.713000
     33 O3          26.1340    -5.2880    19.1240 o          1 OIH      -0.582100
     34 H1          21.3840    -5.0950    15.0930 h1         1 OIH       0.026200
     35 H2          22.1670    -5.4050    13.5510 h1         1 OIH       0.026200
     36 H3          25.0030    -2.9050    14.1340 hc         1 OIH       0.027200
     37 H4          25.1460    -4.6470    14.4100 hc         1 OIH       0.027200
     38 H5          24.3610    -4.0490    12.9350 hc         1 OIH       0.027200
     39 H6          21.8120    -8.0380    13.4540 hc         1 OIH       0.049200
     40 H7          22.4100    -9.0260    14.7860 hc         1 OIH       0.049200
     41 H8          26.5740    -9.3580    14.3160 hc         1 OIH       0.033950
     42 H9          26.0050    -8.3700    12.9740 hc         1 OIH       0.033950
     43 H10         25.7300    -7.1230    15.0910 hc         1 OIH       0.049200
     44 H11         24.8190    -8.4490    15.8140 hc         1 OIH       0.049200
     45 H12         28.2640    -4.2090    19.4600 ha         1 OIH       0.155000
     46 H13         20.4320    -8.2740    18.4730 ha         1 OIH       0.123000
     47 H14         20.9180    -7.6520    16.1220 ha         1 OIH       0.099000
     48 H15         24.0930    -6.4170    19.7500 ha         1 OIH       0.170000
     49 H16         22.1320    -9.9130    20.3020 h4         1 OIH       0.117000
     50 H17         21.6750    -9.8970    22.9850 ha         1 OIH       0.103000
     51 H18         21.4090    -7.3500    23.7420 ha         1 OIH       0.132000
     52 H19         23.9790    -6.8020    13.3680 h1         1 OIH       0.041700
     53 H20         23.3070    -3.6800    15.7990 hc         1 OIH       0.088700
     54 H21         21.2990    -2.6430    14.7860 hc         1 OIH       0.027200
     55 H22         22.7600    -1.7260    14.3720 hc         1 OIH       0.027200
     56 H23         22.0140    -2.7980    13.1660 hc         1 OIH       0.027200
     57 H24         22.6730   -10.2590    12.6490 hc         1 OIH       0.033950
     58 H25         23.5810    -8.9250    11.9430 hc         1 OIH       0.033950
     59 H26         24.4620   -10.6690    14.3280 hc         1 OIH       0.036700
     60 H27         25.1570   -10.6920    12.7110 hc         1 OIH       0.036700
     61 H28         30.3870    -1.9950    15.5290 ha         1 OIH       0.138000
     62 H29         30.4110    -3.0300    19.7140 ha         1 OIH       0.137000
     63 H30         24.8790    -5.3960    16.2320 hn         1 OIH       0.169000
     64 H31         26.5280    -4.4000    16.1230 hn         1 OIH       0.155000
     65 N1          23.0660    -6.3550    15.2220 nh         1 OIH      -0.796400
     66 F1          28.1160    -3.1780    15.0050 f          1 OIH      -0.183000
     67 N3          24.8660    -5.6010    17.2220 ns         1 OIH      -0.155000
     68 Cl1         32.0690    -1.6010    17.8400 cl         1 OIH      -0.209000
@<TRIPOS>BOND
     1     1    19 2   
     2     1    20 1   
     3     1    29 1   
     4     2    22 1   
     5     2    34 1   
     6     2    35 1   
     7     2    65 1   
     8     3    22 1   
     9     3    36 1   
    10     3    37 1   
    11     3    38 1   
    12     4    21 1   
    13     4    24 1   
    14     4    39 1   
    15     4    40 1   
    16     5     6 1   
    17     5    25 1   
    18     5    41 1   
    19     5    42 1   
    20     6    21 1   
    21     6    43 1   
    22     6    44 1   
    23     7    30 1   
    24     7    33 2   
    25     7    67 1   
    26     8    26 ar  
    27     8    27 ar  
    28     8    66 1   
    29     9    27 ar  
    30     9    28 ar  
    31     9    68 1   
    32    10    26 ar  
    33    10    28 ar  
    34    10    45 1   
    35    11    12 ar  
    36    11    16 ar  
    37    11    46 1   
    38    12    13 ar  
    39    12    47 1   
    40    13    14 ar  
    41    13    65 1   
    42    14    15 ar  
    43    14    67 1   
    44    15    16 ar  
    45    15    48 1   
    46    16    29 1   
    47    17    18 2   
    48    17    29 1   
    49    17    49 1   
    50    18    19 1   
    51    18    50 1   
    52    19    51 1   
    53    20    31 1   
    54    20    32 1   
    55    21    52 1   
    56    21    65 1   
    57    22    23 1   
    58    22    53 1   
    59    23    54 1   
    60    23    55 1   
    61    23    56 1   
    62    24    25 1   
    63    24    57 1   
    64    24    58 1   
    65    25    59 1   
    66    25    60 1   
    67    26    30 1   
    68    27    61 1   
    69    28    62 1   
    70    30    64 1   
    71    63    67 1   
@<TRIPOS>SUBSTRUCTURE
     1 OIH         1 TEMP              0 ****  ****    0 ROOT
