@<TRIPOS>MOLECULE
OIJ
   55    60     1     0     0
SMALL
No Charge or Current Charge


@<TRIPOS>ATOM
      1 C1         154.4570   192.8600   145.9320 c6         1 OIJ       0.175300
      2 C2         154.6430   192.5950   144.4110 c6         1 OIJ      -0.106900
      3 C3         156.1310   192.4600   143.9990 c6         1 OIJ       0.233800
      4 N4         156.3610   195.1140   142.3640 nc         1 OIJ      -0.576100
      5 C5         160.0710   195.1430   144.3240 cc         1 OIJ       0.388900
      6 C6         159.8400   195.9130   143.2100 cd         1 OIJ      -0.203000
      7 C7         158.5500   195.8350   142.6280 cd         1 OIJ      -0.028000
      8 C8         158.0210   196.5080   141.5150 cd         1 OIJ      -0.245800
      9 C10        158.7100   197.2730   139.2380 ca         1 OIJ      -0.065000
     10 C11        159.3620   198.1890   138.3870 ca         1 OIJ      -0.144000
     11 C12        160.0040   199.2790   138.9810 ca         1 OIJ      -0.031000
     12 C13        161.2390   201.2680   139.2570 c          1 OIJ       0.565000
     13 C14        160.7950   200.7540   140.6650 c5         1 OIJ      -0.118100
     14 C15        160.0180   199.4810   140.3430 ca         1 OIJ      -0.147300
     15 C16        159.3750   198.5810   141.2040 ca         1 OIJ      -0.054000
     16 C19        155.5770   197.7530   139.9670 ca         1 OIJ      -0.058000
     17 C21        153.6600   197.1930   138.5810 ca         1 OIJ       0.180000
     18 C22        153.7060   195.8710   139.0460 ca         1 OIJ      -0.160000
     19 C23        154.6940   195.4860   139.9690 ca         1 OIJ      -0.058000
     20 C24        156.9660   193.1170   146.2810 c6         1 OIJ       0.233800
     21 C25        155.6840   192.3690   146.7370 c6         1 OIJ      -0.106900
     22 C17        156.6680   196.0210   141.4220 cd         1 OIJ       0.453200
     23 C18        155.6570   196.4170   140.4200 ca         1 OIJ      -0.123900
     24 C20        154.5880   198.1360   139.0430 ca         1 OIJ      -0.160000
     25 C4         157.9100   194.2460   144.2280 cd         1 OIJ       0.825400
     26 C9         158.7130   197.4650   140.6440 ca         1 OIJ      -0.032800
     27 N1         156.9830   193.3660   144.8100 nh         1 OIJ      -0.784300
     28 N2         159.0990   194.3100   144.8480 nc         1 OIJ      -0.791000
     29 N3         160.7130   200.3230   138.3990 ns         1 OIJ      -0.149000
     30 N5         157.5540   195.0300   143.0800 na         1 OIJ       0.076900
     31 O1         153.2650   192.2220   146.4020 oh         1 OIJ      -0.657000
     32 H1         154.3770   193.9480   146.0800 h1         1 OIJ       0.040700
     33 H2         154.1830   193.4190   143.8510 hc         1 OIJ       0.060700
     34 H3         154.1120   191.6830   144.1060 hc         1 OIJ       0.060700
     35 H4         156.2420   192.6250   142.9190 h1         1 OIJ       0.057700
     36 H5         156.4490   191.4210   144.1770 h1         1 OIJ       0.057700
     37 H6         161.0160   195.1420   144.8510 h4         1 OIJ       0.026100
     38 H7         160.6140   196.5570   142.8100 ha         1 OIJ       0.144000
     39 H8         158.2020   196.4120   138.8100 ha         1 OIJ       0.123000
     40 H9         159.3650   198.0510   137.3080 ha         1 OIJ       0.123000
     41 H10        161.6850   200.5940   141.2820 hc         1 OIJ       0.089200
     42 H11        160.2000   201.5310   141.1550 hc         1 OIJ       0.089200
     43 H12        159.3780   198.7460   142.2790 ha         1 OIJ       0.121000
     44 H13        156.2740   198.5030   140.3350 ha         1 OIJ       0.127000
     45 H14        152.9750   195.1480   138.6930 ha         1 OIJ       0.133500
     46 H15        154.7170   194.4580   140.3260 ha         1 OIJ       0.127000
     47 H16        157.8520   192.5420   146.5910 h1         1 OIJ       0.057700
     48 H17        157.0100   194.0820   146.8090 h1         1 OIJ       0.057700
     49 H18        155.8140   191.2880   146.5920 hc         1 OIJ       0.060700
     50 H19        155.5340   192.5240   147.8130 hc         1 OIJ       0.060700
     51 H20        154.5370   199.1630   138.6920 ha         1 OIJ       0.133500
     52 H21        160.8380   200.3870   137.3970 hn         1 OIJ       0.172000
     53 H22        153.1330   192.5180   147.3300 ho         1 OIJ       0.443000
     54 O2         161.8920   202.2560   138.9450 o          1 OIJ      -0.525000
     55 F1         152.7090   197.5620   137.6960 f          1 OIJ      -0.178000
@<TRIPOS>BOND
     1     1     2 1   
     2     1    21 1   
     3     1    31 1   
     4     1    32 1   
     5     2     3 1   
     6     2    33 1   
     7     2    34 1   
     8     3    27 1   
     9     3    35 1   
    10     3    36 1   
    11     4    22 2   
    12     4    30 1   
    13     5     6 2   
    14     5    28 1   
    15     5    37 1   
    16     6     7 1   
    17     6    38 1   
    18     7     8 2   
    19     7    30 1   
    20     8    22 1   
    21     8    26 1   
    22     9    10 ar  
    23     9    26 ar  
    24     9    39 1   
    25    10    11 ar  
    26    10    40 1   
    27    11    14 ar  
    28    11    29 1   
    29    12    13 1   
    30    12    29 1   
    31    12    54 2   
    32    13    14 1   
    33    13    41 1   
    34    13    42 1   
    35    14    15 ar  
    36    15    26 ar  
    37    15    43 1   
    38    16    23 ar  
    39    16    24 ar  
    40    16    44 1   
    41    17    18 ar  
    42    17    24 ar  
    43    17    55 1   
    44    18    19 ar  
    45    18    45 1   
    46    19    23 ar  
    47    19    46 1   
    48    20    21 1   
    49    20    27 1   
    50    20    47 1   
    51    20    48 1   
    52    21    49 1   
    53    21    50 1   
    54    22    23 1   
    55    24    51 1   
    56    25    27 1   
    57    25    28 2   
    58    25    30 1   
    59    29    52 1   
    60    31    53 1   
@<TRIPOS>SUBSTRUCTURE
     1 OIJ         1 TEMP              0 ****  ****    0 ROOT
