@<TRIPOS>MOLECULE
OIJ
   55    60     1     0     0
SMALL
abcg2


@<TRIPOS>ATOM
      1 C1         154.5030   193.0160   145.8510 c6         1 OIJ       0.175300
      2 C2         154.5600   192.8620   144.3280 c6         1 OIJ      -0.106900
      3 C3         156.0000   192.6800   143.8620 c6         1 OIJ       0.233800
      4 N4         156.5180   195.1460   142.4690 nc         1 OIJ      -0.576100
      5 C5         159.9540   195.2300   144.4960 cc         1 OIJ       0.388900
      6 C6         159.8550   195.9800   143.3660 cd         1 OIJ      -0.203000
      7 C7         158.6310   195.9100   142.6710 cd         1 OIJ      -0.028000
      8 C8         158.0690   196.5400   141.5700 cd         1 OIJ      -0.245800
      9 C10        158.7140   197.3040   139.2950 ca         1 OIJ      -0.065000
     10 C11        159.3290   198.1940   138.4220 ca         1 OIJ      -0.144000
     11 C12        159.9870   199.2800   138.9690 ca         1 OIJ      -0.031000
     12 C13        161.1970   201.2060   139.2070 c          1 OIJ       0.565000
     13 C14        160.8150   200.7360   140.6030 c5         1 OIJ      -0.118100
     14 C15        160.0350   199.4860   140.3470 ca         1 OIJ      -0.147300
     15 C16        159.4100   198.6050   141.2010 ca         1 OIJ      -0.054000
     16 C19        155.5460   197.6470   140.0540 ca         1 OIJ      -0.058000
     17 C21        153.6840   196.9490   138.7470 ca         1 OIJ       0.180000
     18 C22        153.7880   195.6590   139.2290 ca         1 OIJ      -0.160000
     19 C23        154.7970   195.3680   140.1340 ca         1 OIJ      -0.058000
     20 C24        157.0020   192.9400   146.0720 c6         1 OIJ       0.233800
     21 C25        155.6820   192.2790   146.4780 c6         1 OIJ      -0.106900
     22 C17        156.7570   196.0240   141.5080 cd         1 OIJ       0.453200
     23 C18        155.6940   196.3520   140.5510 ca         1 OIJ      -0.123900
     24 C20        154.5440   197.9530   139.1480 ca         1 OIJ      -0.160000
     25 C4         157.8690   194.2810   144.2760 cd         1 OIJ       0.825400
     26 C9         158.7370   197.4920   140.6780 ca         1 OIJ      -0.032800
     27 N1         156.8970   193.4580   144.7110 nh         1 OIJ      -0.784300
     28 N2         158.9890   194.3920   144.9380 nc         1 OIJ      -0.791000
     29 N3         160.6750   200.3010   138.3290 ns         1 OIJ      -0.149000
     30 N5         157.6610   195.0610   143.1590 na         1 OIJ       0.076900
     31 O1         153.2550   192.5300   146.2930 oh         1 OIJ      -0.657000
     32 H1         154.6050   194.0820   146.1000 h1         1 OIJ       0.040700
     33 H2         154.1100   193.7280   143.8390 hc         1 OIJ       0.060700
     34 H3         153.9840   191.9810   144.0330 hc         1 OIJ       0.060700
     35 H4         156.1110   192.9560   142.8200 h1         1 OIJ       0.057700
     36 H5         156.2990   191.6290   143.9400 h1         1 OIJ       0.057700
     37 H6         160.8530   195.2620   145.1000 h4         1 OIJ       0.026100
     38 H7         160.6540   196.6230   143.0300 ha         1 OIJ       0.144000
     39 H8         158.2050   196.4400   138.8880 ha         1 OIJ       0.123000
     40 H9         159.2960   198.0300   137.3520 ha         1 OIJ       0.123000
     41 H10        161.7160   200.5670   141.1980 hc         1 OIJ       0.089200
     42 H11        160.2390   201.5110   141.1140 hc         1 OIJ       0.089200
     43 H12        159.4240   198.7770   142.2700 ha         1 OIJ       0.121000
     44 H13        156.2120   198.4340   140.3800 ha         1 OIJ       0.127000
     45 H14        153.1000   194.8910   138.9000 ha         1 OIJ       0.133500
     46 H15        154.8950   194.3570   140.5080 ha         1 OIJ       0.127000
     47 H16        157.8280   192.2280   146.1660 h1         1 OIJ       0.057700
     48 H17        157.2190   193.7740   146.7400 h1         1 OIJ       0.057700
     49 H18        155.6580   191.2290   146.1750 hc         1 OIJ       0.060700
     50 H19        155.6140   192.2940   147.5680 hc         1 OIJ       0.060700
     51 H20        154.4330   198.9590   138.7650 ha         1 OIJ       0.133500
     52 H21        160.7840   200.3750   137.3280 hn         1 OIJ       0.172000
     53 H22        153.1700   192.7280   147.2310 ho         1 OIJ       0.443000
     54 O2         161.8400   202.1900   138.9130 o          1 OIJ      -0.525000
     55 F1         152.7180   197.2340   137.8610 f          1 OIJ      -0.178000
@<TRIPOS>BOND
     1     1     2 1   
     2     1    21 1   
     3     1    31 1   
     4     1    32 1   
     5     2     3 1   
     6     2    33 1   
     7     2    34 1   
     8     3    27 1   
     9     3    35 1   
    10     3    36 1   
    11     4    22 2   
    12     4    30 1   
    13     5     6 2   
    14     5    28 1   
    15     5    37 1   
    16     6     7 1   
    17     6    38 1   
    18     7     8 2   
    19     7    30 1   
    20     8    22 1   
    21     8    26 1   
    22     9    10 ar  
    23     9    26 ar  
    24     9    39 1   
    25    10    11 ar  
    26    10    40 1   
    27    11    14 ar  
    28    11    29 1   
    29    12    13 1   
    30    12    29 1   
    31    12    54 2   
    32    13    14 1   
    33    13    41 1   
    34    13    42 1   
    35    14    15 ar  
    36    15    26 ar  
    37    15    43 1   
    38    16    23 ar  
    39    16    24 ar  
    40    16    44 1   
    41    17    18 ar  
    42    17    24 ar  
    43    17    55 1   
    44    18    19 ar  
    45    18    45 1   
    46    19    23 ar  
    47    19    46 1   
    48    20    21 1   
    49    20    27 1   
    50    20    47 1   
    51    20    48 1   
    52    21    49 1   
    53    21    50 1   
    54    22    23 1   
    55    24    51 1   
    56    25    27 1   
    57    25    28 2   
    58    25    30 1   
    59    29    52 1   
    60    31    53 1   
@<TRIPOS>SUBSTRUCTURE
     1 OIJ         1 TEMP              0 ****  ****    0 ROOT
