@<TRIPOS>MOLECULE
OIK
   43    46     1     0     0
SMALL
No Charge or Current Charge


@<TRIPOS>ATOM
      1 N1          10.0820    -1.8830    22.7790 nh         1 OIK      -0.790400
      2 C4           8.1990    -0.4690    21.8470 c6         1 OIK       0.094500
      3 C5          11.3940    -2.0000    23.2980 ca         1 OIK       0.286000
      4 C6          11.5980    -2.6000    24.5560 ca         1 OIK      -0.157000
      5 C7          12.8920    -2.7250    25.0920 ca         1 OIK      -0.082500
      6 C8          13.9980    -2.2490    24.3690 ca         1 OIK      -0.140000
      7 C10         12.5130    -1.5230    22.5830 ca         1 OIK      -0.157000
      8 C13          5.6690     1.0670    17.7080 ca         1 OIK       0.372900
      9 C15          4.5780     2.4390    19.4110 ca         1 OIK      -0.079000
     10 C17          4.4130     1.6230    21.6950 ca         1 OIK      -0.085000
     11 O            6.4210    -3.1530    20.1720 o          1 OIK      -0.593100
     12 C11          6.2720    -0.8720    19.5740 ca         1 OIK      -0.177600
     13 C19          5.5610     0.2770    20.0050 ca         1 OIK       0.009000
     14 C18          5.1060     0.4550    21.3320 ca         1 OIK      -0.108000
     15 C16          4.1560     2.6170    20.7380 ca         1 OIK      -0.111000
     16 C14          5.2700     1.2690    19.0430 ca         1 OIK      -0.103000
     17 N2           6.3110    -0.0460    17.2890 nb         1 OIK      -0.664000
     18 C12          6.5930    -0.9930    18.2120 ca         1 OIK       0.359900
     19 N            7.3680    -1.6950    21.6720 n          1 OIK      -0.410800
     20 C3           9.7210    -0.7890    21.8250 c6         1 OIK       0.176300
     21 C2           9.2230    -3.1010    22.6410 c6         1 OIK       0.176300
     22 C1           7.7110    -2.7470    22.6680 c6         1 OIK       0.094500
     23 C9          13.8090    -1.6470    23.1150 ca         1 OIK      -0.082500
     24 H1           7.9890     0.2760    21.0680 h1         1 OIK       0.065950
     25 H2           7.9470    -0.0060    22.8110 h1         1 OIK       0.065950
     26 H3          10.7490    -2.9600    25.1280 ha         1 OIK       0.112500
     27 H4          13.0360    -3.1880    26.0660 ha         1 OIK       0.111000
     28 H5          15.0000    -2.3450    24.7820 ha         1 OIK       0.115000
     29 H6          12.3860    -1.0650    21.6070 ha         1 OIK       0.112500
     30 H8           4.3600     3.2060    18.6690 ha         1 OIK       0.119000
     31 H9           4.0710     1.7540    22.7190 ha         1 OIK       0.118000
     32 H10          5.2680    -0.3050    22.0910 ha         1 OIK       0.127000
     33 H11          3.6180     3.5200    21.0220 ha         1 OIK       0.119000
     34 H12          7.1250    -1.8700    17.8440 h4         1 OIK       0.029100
     35 H13         10.0070    -1.0780    20.8020 h1         1 OIK       0.048950
     36 H14         10.2710     0.1310    22.0720 h1         1 OIK       0.048950
     37 H15          9.4260    -3.8200    23.4470 h1         1 OIK       0.048950
     38 H16          9.4510    -3.6070    21.6910 h1         1 OIK       0.048950
     39 H17          7.4510    -2.3800    23.6710 h1         1 OIK       0.065950
     40 H18          7.1190    -3.6570    22.4990 h1         1 OIK       0.065950
     41 H19         14.6650    -1.2790    22.5530 ha         1 OIK       0.111000
     42 C            6.6990    -1.9980    20.4660 c          1 OIK       0.618700
     43 H7           5.4550     1.8140    16.9440 h4         1 OIK       0.022100
@<TRIPOS>BOND
     1     1     3 1   
     2     1    20 1   
     3     1    21 1   
     4     2    19 1   
     5     2    20 1   
     6     2    24 1   
     7     2    25 1   
     8     3     4 ar  
     9     3     7 ar  
    10     4     5 ar  
    11     4    26 1   
    12     5     6 ar  
    13     5    27 1   
    14     6    23 ar  
    15     6    28 1   
    16     7    23 ar  
    17     7    29 1   
    18     8    16 ar  
    19     8    17 ar  
    20     8    43 1   
    21     9    15 ar  
    22     9    16 ar  
    23     9    30 1   
    24    10    14 ar  
    25    10    15 ar  
    26    10    31 1   
    27    11    42 2   
    28    12    13 ar  
    29    12    18 ar  
    30    12    42 1   
    31    13    14 ar  
    32    13    16 ar  
    33    14    32 1   
    34    15    33 1   
    35    17    18 ar  
    36    18    34 1   
    37    19    22 1   
    38    19    42 1   
    39    20    35 1   
    40    20    36 1   
    41    21    22 1   
    42    21    37 1   
    43    21    38 1   
    44    22    39 1   
    45    22    40 1   
    46    23    41 1   
@<TRIPOS>SUBSTRUCTURE
     1 OIK         1 TEMP              0 ****  ****    0 ROOT
