@<TRIPOS>MOLECULE
OIK
   43    46     1     0     0
SMALL
abcg2


@<TRIPOS>ATOM
      1 N1          10.0370    -1.8180    22.9050 nh         1 OIK      -0.790400
      2 C4           8.2860    -0.4880    21.8230 c6         1 OIK       0.094500
      3 C5          11.3740    -2.0000    23.3010 ca         1 OIK       0.286000
      4 C6          11.6740    -2.8300    24.3950 ca         1 OIK      -0.157000
      5 C7          12.9800    -2.9940    24.8300 ca         1 OIK      -0.082500
      6 C8          14.0320    -2.3340    24.1960 ca         1 OIK      -0.140000
      7 C10         12.4390    -1.3470    22.6640 ca         1 OIK      -0.157000
      8 C13          5.8760     1.0350    17.7570 ca         1 OIK       0.372900
      9 C15          4.4900     2.3930    19.2960 ca         1 OIK      -0.079000
     10 C17          4.1800     1.6220    21.5610 ca         1 OIK      -0.085000
     11 O            5.9550    -2.9800    20.5940 o          1 OIK      -0.593100
     12 C11          6.3350    -0.8160    19.7180 ca         1 OIK      -0.177600
     13 C19          5.5260     0.3020    20.0510 ca         1 OIK       0.009000
     14 C18          4.9500     0.5110    21.3270 ca         1 OIK      -0.108000
     15 C16          3.9460     2.5710    20.5410 ca         1 OIK      -0.111000
     16 C14          5.2900     1.2590    19.0260 ca         1 OIK      -0.103000
     17 N2           6.6220    -0.0070    17.4670 nb         1 OIK      -0.664000
     18 C12          6.8390    -0.9220    18.4460 ca         1 OIK       0.359900
     19 N            7.4720    -1.6900    21.6890 n          1 OIK      -0.410800
     20 C3           9.7670    -0.8440    21.8560 c6         1 OIK       0.176300
     21 C2           9.2250    -3.0280    22.7440 c6         1 OIK       0.176300
     22 C1           7.7430    -2.6890    22.7160 c6         1 OIK       0.094500
     23 C9          13.7470    -1.5100    23.1160 ca         1 OIK      -0.082500
     24 H1           8.0960     0.1830    20.9920 h1         1 OIK       0.065950
     25 H2           8.0090     0.0210    22.7510 h1         1 OIK       0.065950
     26 H3          10.8760    -3.3300    24.9260 ha         1 OIK       0.112500
     27 H4          13.1760    -3.6350    25.6810 ha         1 OIK       0.111000
     28 H5          15.0500    -2.4610    24.5410 ha         1 OIK       0.115000
     29 H6          12.2620    -0.7140    21.8080 ha         1 OIK       0.112500
     30 H8           4.3170     3.1130    18.5050 ha         1 OIK       0.119000
     31 H9           3.7440     1.7760    22.5400 ha         1 OIK       0.118000
     32 H10          5.1210    -0.2090    22.1160 ha         1 OIK       0.127000
     33 H11          3.3340     3.4390    20.7510 ha         1 OIK       0.119000
     34 H12          7.4580    -1.7700    18.1760 h4         1 OIK       0.029100
     35 H13         10.0710    -1.2190    20.8670 h1         1 OIK       0.048950
     36 H14         10.3250     0.0680    22.0590 h1         1 OIK       0.048950
     37 H15          9.4080    -3.7110    23.5680 h1         1 OIK       0.048950
     38 H16          9.4960    -3.5430    21.8100 h1         1 OIK       0.048950
     39 H17          7.4380    -2.2820    23.6850 h1         1 OIK       0.065950
     40 H18          7.1550    -3.5770    22.5020 h1         1 OIK       0.065950
     41 H19         14.5470    -0.9910    22.6030 ha         1 OIK       0.111000
     42 C            6.5800    -1.9220    20.7070 c          1 OIK       0.618700
     43 H7           5.7060     1.7610    16.9670 h4         1 OIK       0.022100
@<TRIPOS>BOND
     1     1     3 1   
     2     1    20 1   
     3     1    21 1   
     4     2    19 1   
     5     2    20 1   
     6     2    24 1   
     7     2    25 1   
     8     3     4 ar  
     9     3     7 ar  
    10     4     5 ar  
    11     4    26 1   
    12     5     6 ar  
    13     5    27 1   
    14     6    23 ar  
    15     6    28 1   
    16     7    23 ar  
    17     7    29 1   
    18     8    16 ar  
    19     8    17 ar  
    20     8    43 1   
    21     9    15 ar  
    22     9    16 ar  
    23     9    30 1   
    24    10    14 ar  
    25    10    15 ar  
    26    10    31 1   
    27    11    42 2   
    28    12    13 ar  
    29    12    18 ar  
    30    12    42 1   
    31    13    14 ar  
    32    13    16 ar  
    33    14    32 1   
    34    15    33 1   
    35    17    18 ar  
    36    18    34 1   
    37    19    22 1   
    38    19    42 1   
    39    20    35 1   
    40    20    36 1   
    41    21    22 1   
    42    21    37 1   
    43    21    38 1   
    44    22    39 1   
    45    22    40 1   
    46    23    41 1   
@<TRIPOS>SUBSTRUCTURE
     1 OIK         1 TEMP              0 ****  ****    0 ROOT
