@<TRIPOS>MOLECULE
OIL
   20    19     1     0     0
SMALL
abcg2


@<TRIPOS>ATOM
      1 C            1.7340    -0.0030     0.0790 c          1 OIL       0.692000
      2 O            2.2860    -0.7890     0.8860 o          1 OIL      -0.724500
      3 O1           0.3120    -1.8960    -0.2580 oh         1 OIL      -0.715000
      4 CA           0.3730    -0.5020    -0.4640 c3         1 OIL       0.025300
      5 CB          -0.8280     0.2050     0.1990 c3         1 OIL      -0.060700
      6 CG1         -2.1400    -0.4410    -0.2660 c3         1 OIL      -0.074400
      7 CG2         -0.8390     1.7060    -0.0720 c3         1 OIL      -0.076100
      8 OXT          2.1700     1.0910    -0.3090 o          1 OIL      -0.724500
      9 HO1          1.0310    -2.0350     0.3860 ho         1 OIL       0.472000
     10 HA           0.3300    -0.2950    -1.5430 h1         1 OIL       0.033700
     11 HB          -0.7420     0.0490     1.2840 hc         1 OIL       0.041700
     12 HD1         -3.2860    -0.0560     1.5380 hc         1 OIL       0.015033
     13 HD1A        -3.5770     1.1230     0.2630 hc         1 OIL       0.015033
     14 HD1B        -4.2670    -0.4870     0.1420 hc         1 OIL       0.015033
     15 HG1         -2.2520    -0.2760    -1.3440 hc         1 OIL       0.036700
     16 HG1A        -2.0770    -1.5210    -0.1260 hc         1 OIL       0.036700
     17 HG2         -1.6910     2.1850     0.4110 hc         1 OIL       0.025367
     18 HG2A         0.0610     2.1960     0.2910 hc         1 OIL       0.025367
     19 HG2B        -0.9150     1.9070    -1.1440 hc         1 OIL       0.025367
     20 CD1         -3.3820     0.0670     0.4570 c3         1 OIL      -0.084100
@<TRIPOS>BOND
     1     1     2 1   
     2     1     4 1   
     3     1     8 1   
     4     3     4 1   
     5     3     9 1   
     6     4     5 1   
     7     4    10 1   
     8     5     6 1   
     9     5     7 1   
    10     5    11 1   
    11     6    15 1   
    12     6    16 1   
    13     6    20 1   
    14     7    17 1   
    15     7    18 1   
    16     7    19 1   
    17    12    20 1   
    18    13    20 1   
    19    14    20 1   
@<TRIPOS>SUBSTRUCTURE
     1 OIL         1 TEMP              0 ****  ****    0 ROOT
