@<TRIPOS>MOLECULE
OIL
   20    19     1     0     0
SMALL
No Charge or Current Charge


@<TRIPOS>ATOM
      1 C            1.7730     0.1250    -0.0470 c          1 OIL       0.692000
      2 O            2.2580    -0.2240     1.0230 o          1 OIL      -0.724500
      3 O1           0.3920    -1.9600    -0.2180 oh         1 OIL      -0.715000
      4 CA           0.4020    -0.5280    -0.4780 c3         1 OIL       0.025300
      5 CB          -0.8340     0.1460     0.2100 c3         1 OIL      -0.060700
      6 CG1         -2.1820    -0.4370    -0.3200 c3         1 OIL      -0.074400
      7 CG2         -0.7940     1.6930     0.0770 c3         1 OIL      -0.076100
      8 OXT          2.3720     0.8180    -0.8580 o          1 OIL      -0.724500
      9 HO1          0.9440    -2.0870     0.5900 ho         1 OIL       0.472000
     10 HA           0.3030    -0.3610    -1.5600 h1         1 OIL       0.033700
     11 HB          -0.7750    -0.0820     1.2820 hc         1 OIL       0.041700
     12 HD1         -3.3530    -0.0840     1.4950 hc         1 OIL       0.015033
     13 HD1A        -3.6330     1.1230     0.2140 hc         1 OIL       0.015033
     14 HD1B        -4.3260    -0.4990     0.0690 hc         1 OIL       0.015033
     15 HG1         -2.2800    -0.2140    -1.3900 hc         1 OIL       0.036700
     16 HG1A        -2.1670    -1.5300    -0.2330 hc         1 OIL       0.036700
     17 HG2         -1.6260     2.1620     0.6150 hc         1 OIL       0.025367
     18 HG2A         0.1260     2.1080     0.5040 hc         1 OIL       0.025367
     19 HG2B        -0.8520     1.9950    -0.9760 hc         1 OIL       0.025367
     20 CD1         -3.4480     0.0610     0.4120 c3         1 OIL      -0.084100
@<TRIPOS>BOND
     1     1     2 1   
     2     1     4 1   
     3     1     8 1   
     4     3     4 1   
     5     3     9 1   
     6     4     5 1   
     7     4    10 1   
     8     5     6 1   
     9     5     7 1   
    10     5    11 1   
    11     6    15 1   
    12     6    16 1   
    13     6    20 1   
    14     7    17 1   
    15     7    18 1   
    16     7    19 1   
    17    12    20 1   
    18    13    20 1   
    19    14    20 1   
@<TRIPOS>SUBSTRUCTURE
     1 OIL         1 TEMP              0 ****  ****    0 ROOT
