@<TRIPOS>MOLECULE
OIM
   56    58     1     0     0
SMALL
No Charge or Current Charge


@<TRIPOS>ATOM
      1 N0          -3.9800     3.0490     0.2800 n8         1 OIM      -1.028200
      2 CA0         -3.6610     1.5810     0.3140 c3         1 OIM       0.155500
      3 C0          -2.9980     1.1230    -1.0730 c5         1 OIM       0.516200
      4 O0          -3.9660     0.9430    -2.0630 oh         1 OIM      -0.607000
      5 CB0         -4.9120     0.7630     0.8220 c3         1 OIM      -0.041700
      6 CGX         -5.3920     1.2500     2.2290 c3         1 OIM      -0.077400
      7 CGY         -4.6710    -0.7730     0.8260 c3         1 OIM      -0.089100
      8 CDX         -6.7100     0.6220     2.7380 c3         1 OIM      -0.085100
      9 N1          -2.1890    -0.0970    -0.9410 n2         1 OIM      -0.537900
     10 CA1         -0.9380     0.2670    -0.8910 ce         1 OIM       0.409000
     11 CB1         -0.8100     1.7750    -1.0820 c5         1 OIM       0.110000
     12 CG1          0.2270     2.2500    -2.1240 c3         1 OIM      -0.096100
     13 OG1         -2.1150     2.1360    -1.5560 os         1 OIM      -0.528000
     14 C1           0.1950    -0.6300    -0.5210 cc         1 OIM       0.487600
     15 N2           1.4130    -0.1650    -0.1860 nd         1 OIM      -0.662300
     16 N3           0.0780    -2.0210    -0.4020 n          1 OIM      -0.279300
     17 C2           1.2770    -2.5470     0.0190 c          1 OIM       0.533200
     18 O2           1.5660    -3.7210     0.2190 o          1 OIM      -0.520000
     19 CA2          2.0980    -1.3290     0.1460 cd         1 OIM       0.024400
     20 CA3         -1.0810    -2.8900    -0.7730 c3         1 OIM      -0.062000
     21 C3          -1.4220    -2.9340    -2.2820 c          1 OIM       0.716000
     22 O3          -0.6770    -2.3680    -3.0720 o          1 OIM      -0.717000
     23 CB2          3.4190    -1.3160     0.5480 ce         1 OIM      -0.094200
     24 CG2          4.4180    -0.2040     0.5960 ca         1 OIM      -0.078800
     25 CD1          4.3680     0.8830    -0.3020 ca         1 OIM      -0.049500
     26 CD2          5.4580    -0.2600     1.5460 ca         1 OIM      -0.049500
     27 CE1          5.3330     1.9040    -0.2350 ca         1 OIM      -0.190000
     28 CE2          6.4210     0.7640     1.6110 ca         1 OIM      -0.190000
     29 CZ           6.3550     1.8460     0.7210 ca         1 OIM       0.134100
     30 OH           7.2850     2.8390     0.7780 oh         1 OIM      -0.539100
     31 H1          -3.2490     3.4830    -0.2990 hn         1 OIM       0.407000
     32 H2          -4.8160     3.1730    -0.3010 hn         1 OIM       0.407000
     33 H4          -2.8720     1.4510     1.0690 h1         1 OIM       0.073700
     34 H5          -3.4970     1.2270    -2.8710 ho         1 OIM       0.441000
     35 H6          -5.7330     0.9510     0.1180 hc         1 OIM       0.035700
     36 H7          -4.6020     1.0650     2.9680 hc         1 OIM       0.044700
     37 H8          -5.5480     2.3350     2.2130 hc         1 OIM       0.044700
     38 H9          -5.5460    -1.3200     1.1920 hc         1 OIM       0.045367
     39 H10         -4.4850    -1.1490    -0.1850 hc         1 OIM       0.045367
     40 H11         -3.8140    -1.0340     1.4590 hc         1 OIM       0.045367
     41 H12         -7.4990     0.7050     1.9820 hc         1 OIM       0.025700
     42 H13         -6.5780    -0.4350     2.9950 hc         1 OIM       0.025700
     43 H14         -7.0490     1.1410     3.6420 hc         1 OIM       0.025700
     44 H18         -0.6260     2.2750    -0.1210 h1         1 OIM       0.069700
     45 H19          0.0800     1.7460    -3.0870 hc         1 OIM       0.056367
     46 H20          0.1440     3.3300    -2.2910 hc         1 OIM       0.056367
     47 H21          1.2520     2.0490    -1.7920 hc         1 OIM       0.056367
     48 H23         -0.8790    -3.9220    -0.4630 h1         1 OIM       0.060700
     49 H24         -1.9740    -2.5630    -0.2270 h1         1 OIM       0.060700
     50 H28          3.8130    -2.2890     0.8450 ha         1 OIM       0.183000
     51 H30          3.5940     0.9360    -1.0630 ha         1 OIM       0.131500
     52 H31          5.5160    -1.0950     2.2410 ha         1 OIM       0.131500
     53 H32          5.2870     2.7380    -0.9310 ha         1 OIM       0.113000
     54 H33          7.2130     0.7070     2.3540 ha         1 OIM       0.113000
     55 H34          7.9160     2.6300     1.4990 ho         1 OIM       0.458000
     56 OXT         -2.4040    -3.5770    -2.6230 o          1 OIM      -0.717000
@<TRIPOS>BOND
     1     1     2 1   
     2     1    31 1   
     3     1    32 1   
     4     2     3 1   
     5     2     5 1   
     6     2    33 1   
     7     3     4 1   
     8     3     9 1   
     9     3    13 1   
    10     4    34 1   
    11     5     6 1   
    12     5     7 1   
    13     5    35 1   
    14     6     8 1   
    15     6    36 1   
    16     6    37 1   
    17     7    38 1   
    18     7    39 1   
    19     7    40 1   
    20     8    41 1   
    21     8    42 1   
    22     8    43 1   
    23     9    10 2   
    24    10    11 1   
    25    10    14 1   
    26    11    12 1   
    27    11    13 1   
    28    11    44 1   
    29    12    45 1   
    30    12    46 1   
    31    12    47 1   
    32    14    15 2   
    33    14    16 1   
    34    15    19 1   
    35    16    17 1   
    36    16    20 1   
    37    17    18 2   
    38    17    19 1   
    39    19    23 2   
    40    20    21 1   
    41    20    48 1   
    42    20    49 1   
    43    21    22 1   
    44    21    56 1   
    45    23    24 1   
    46    23    50 1   
    47    24    25 ar  
    48    24    26 ar  
    49    25    27 ar  
    50    25    51 1   
    51    26    28 ar  
    52    26    52 1   
    53    27    29 ar  
    54    27    53 1   
    55    28    29 ar  
    56    28    54 1   
    57    29    30 1   
    58    30    55 1   
@<TRIPOS>SUBSTRUCTURE
     1 OIM         1 TEMP              0 ****  ****    0 ROOT
