@<TRIPOS>MOLECULE
OIM
   56    58     1     0     0
SMALL
abcg2


@<TRIPOS>ATOM
      1 N0          -4.1980     3.0010     0.0340 n8         1 OIM      -1.028200
      2 CA0         -3.6920     1.6660     0.3040 c3         1 OIM       0.155500
      3 C0          -2.9160     1.0910    -0.9130 c5         1 OIM       0.516200
      4 O0          -3.7420     0.6950    -1.9480 oh         1 OIM      -0.607000
      5 CB0         -4.8580     0.7970     0.8190 c3         1 OIM      -0.041700
      6 CGX         -5.3980     1.3990     2.1260 c3         1 OIM      -0.077400
      7 CGY         -4.5170    -0.6760     1.0270 c3         1 OIM      -0.089100
      8 CDX         -6.7350     0.8250     2.5780 c3         1 OIM      -0.085100
      9 N1          -2.1080    -0.0460    -0.5560 n2         1 OIM      -0.537900
     10 CA1         -0.8960     0.2410    -0.7640 ce         1 OIM       0.409000
     11 CB1         -0.6830     1.6230    -1.3110 c5         1 OIM       0.110000
     12 CG1         -0.0120     1.6490    -2.6730 c3         1 OIM      -0.096100
     13 OG1         -2.0110     2.0960    -1.3620 os         1 OIM      -0.528000
     14 C1           0.2130    -0.6480    -0.4420 cc         1 OIM       0.487600
     15 N2           1.3890    -0.1780    -0.1930 nd         1 OIM      -0.662300
     16 N3           0.0910    -2.0090    -0.2910 n          1 OIM      -0.279300
     17 C2           1.3390    -2.4960     0.0320 c          1 OIM       0.533200
     18 O2           1.6390    -3.6640     0.1810 o          1 OIM      -0.520000
     19 CA2          2.1690    -1.2750     0.1330 cd         1 OIM       0.024400
     20 CA3         -0.9890    -2.8170    -0.8050 c3         1 OIM      -0.062000
     21 C3          -1.1780    -2.6340    -2.3280 c          1 OIM       0.716000
     22 O3          -0.4290    -1.8210    -2.8970 o          1 OIM      -0.717000
     23 CB2          3.4690    -1.2930     0.5000 ce         1 OIM      -0.094200
     24 CG2          4.3970    -0.2010     0.6590 ca         1 OIM      -0.078800
     25 CD1          4.0820     1.1470     0.4170 ca         1 OIM      -0.049500
     26 CD2          5.6980    -0.4980     1.0870 ca         1 OIM      -0.049500
     27 CE1          5.0210     2.1400     0.5980 ca         1 OIM      -0.190000
     28 CE2          6.6460     0.4890     1.2720 ca         1 OIM      -0.190000
     29 CZ           6.3120     1.8200     1.0290 ca         1 OIM       0.134100
     30 OH           7.1810     2.8270     1.1880 oh         1 OIM      -0.539100
     31 H1          -3.4860     3.5880    -0.3770 hn         1 OIM       0.407000
     32 H2          -4.9880     2.9840    -0.6000 hn         1 OIM       0.407000
     33 H4          -2.9510     1.7500     1.1090 h1         1 OIM       0.073700
     34 H5          -4.4670     1.3230    -2.0430 ho         1 OIM       0.441000
     35 H6          -5.6630     0.8520     0.0720 hc         1 OIM       0.035700
     36 H7          -4.6490     1.2510     2.9130 hc         1 OIM       0.044700
     37 H8          -5.5040     2.4780     2.0060 hc         1 OIM       0.044700
     38 H9          -5.3770    -1.2070     1.4350 hc         1 OIM       0.045367
     39 H10         -4.2340    -1.1770     0.1050 hc         1 OIM       0.045367
     40 H11         -3.6910    -0.7920     1.7320 hc         1 OIM       0.045367
     41 H12         -7.4920     0.9350     1.7980 hc         1 OIM       0.025700
     42 H13         -6.6740    -0.2330     2.8310 hc         1 OIM       0.025700
     43 H14         -7.0980     1.3490     3.4630 hc         1 OIM       0.025700
     44 H18         -0.1000     2.2250    -0.6050 h1         1 OIM       0.069700
     45 H19         -0.5230     0.9980    -3.3800 hc         1 OIM       0.056367
     46 H20         -0.0040     2.6650    -3.0670 hc         1 OIM       0.056367
     47 H21          1.0210     1.3160    -2.5850 hc         1 OIM       0.056367
     48 H23         -0.7530    -3.8570    -0.5790 h1         1 OIM       0.060700
     49 H24         -1.9160    -2.5720    -0.2890 h1         1 OIM       0.060700
     50 H28          3.8710    -2.2790     0.7160 ha         1 OIM       0.183000
     51 H30          3.0890     1.4160     0.0860 ha         1 OIM       0.131500
     52 H31          5.9700    -1.5280     1.2800 ha         1 OIM       0.131500
     53 H32          4.7630     3.1740     0.4090 ha         1 OIM       0.113000
     54 H33          7.6430     0.2240     1.6050 ha         1 OIM       0.113000
     55 H34          8.0310     2.5010     1.5040 ho         1 OIM       0.458000
     56 OXT         -2.0740    -3.3360    -2.8270 o          1 OIM      -0.717000
@<TRIPOS>BOND
     1     1     2 1   
     2     1    31 1   
     3     1    32 1   
     4     2     3 1   
     5     2     5 1   
     6     2    33 1   
     7     3     4 1   
     8     3     9 1   
     9     3    13 1   
    10     4    34 1   
    11     5     6 1   
    12     5     7 1   
    13     5    35 1   
    14     6     8 1   
    15     6    36 1   
    16     6    37 1   
    17     7    38 1   
    18     7    39 1   
    19     7    40 1   
    20     8    41 1   
    21     8    42 1   
    22     8    43 1   
    23     9    10 2   
    24    10    11 1   
    25    10    14 1   
    26    11    12 1   
    27    11    13 1   
    28    11    44 1   
    29    12    45 1   
    30    12    46 1   
    31    12    47 1   
    32    14    15 2   
    33    14    16 1   
    34    15    19 1   
    35    16    17 1   
    36    16    20 1   
    37    17    18 2   
    38    17    19 1   
    39    19    23 2   
    40    20    21 1   
    41    20    48 1   
    42    20    49 1   
    43    21    22 1   
    44    21    56 1   
    45    23    24 1   
    46    23    50 1   
    47    24    25 ar  
    48    24    26 ar  
    49    25    27 ar  
    50    25    51 1   
    51    26    28 ar  
    52    26    52 1   
    53    27    29 ar  
    54    27    53 1   
    55    28    29 ar  
    56    28    54 1   
    57    29    30 1   
    58    30    55 1   
@<TRIPOS>SUBSTRUCTURE
     1 OIM         1 TEMP              0 ****  ****    0 ROOT
