@<TRIPOS>MOLECULE
OIN
   44    46     1     0     0
SMALL
No Charge or Current Charge


@<TRIPOS>ATOM
      1 C10         -1.9690    -1.4970     2.1060 c3         1 OIN       0.145100
      2 N           -0.8710    -0.6930     2.7010 n3         1 OIN      -0.691600
      3 C11          0.4860    -0.9790     2.1660 c5         1 OIN       0.159500
      4 C17          0.4610    -0.2140     0.8030 c5         1 OIN      -0.111400
      5 C16         -0.5400     0.9700     1.0490 c5         1 OIN      -0.111400
      6 C15         -0.9970     0.7780     2.5310 c5         1 OIN       0.159500
      7 C14         -0.0860     1.4630     3.5890 c6         1 OIN      -0.078900
      8 C13          1.3990     1.0810     3.4070 c6         1 OIN       0.180300
      9 C12          1.5300    -0.4480     3.1900 c6         1 OIN      -0.078900
     10 O2           2.1540     1.5150     4.5570 os         1 OIN      -0.442100
     11 C7           3.5250     1.5470     4.5360 c          1 OIN       0.605100
     12 O3           4.1950     1.3000     3.5410 o          1 OIN      -0.484000
     13 C9           4.0980     2.0060     5.8930 c3         1 OIN      -0.116400
     14 C8           4.6510     3.4490     5.8290 c3         1 OIN       0.175600
     15 OH           5.8760     3.5140     5.0880 oh         1 OIN      -0.644000
     16 C6           5.0660     0.9940     6.5320 ca         1 OIN      -0.075300
     17 C5           4.8550     0.5820     7.8650 ca         1 OIN      -0.102000
     18 C4           5.7240    -0.3390     8.4760 ca         1 OIN      -0.109000
     19 C3           6.8150    -0.8580     7.7630 ca         1 OIN      -0.106000
     20 C2           7.0370    -0.4540     6.4370 ca         1 OIN      -0.109000
     21 C1           6.1700     0.4660     5.8240 ca         1 OIN      -0.102000
     22 H101        -2.9300    -1.2270     2.5620 h1         1 OIN       0.032367
     23 H102        -1.7990    -2.5670     2.2840 h1         1 OIN       0.032367
     24 H103        -2.0520    -1.3420     1.0220 h1         1 OIN       0.032367
     25 H11          0.6620    -2.0550     2.0250 h1         1 OIN       0.066700
     26 H171         0.1040    -0.8630    -0.0040 hc         1 OIN       0.049700
     27 H172         1.4580     0.1330     0.5070 hc         1 OIN       0.049700
     28 H161        -0.0790     1.9510     0.8830 hc         1 OIN       0.049700
     29 H162        -1.3930     0.9070     0.3640 hc         1 OIN       0.049700
     30 H15         -2.0280     1.1300     2.6880 h1         1 OIN       0.066700
     31 H141        -0.1950     2.5530     3.5200 hc         1 OIN       0.061700
     32 H142        -0.4240     1.1780     4.5950 hc         1 OIN       0.061700
     33 H13          1.7820     1.6060     2.5200 h1         1 OIN       0.057700
     34 H121         1.3970    -0.9730     4.1460 hc         1 OIN       0.061700
     35 H122         2.5380    -0.6930     2.8350 hc         1 OIN       0.061700
     36 H9           3.2260     2.0830     6.5530 hc         1 OIN       0.080700
     37 H81          4.8140     3.8080     6.8540 h1         1 OIN       0.053700
     38 H82          3.8940     4.1020     5.3720 h1         1 OIN       0.053700
     39 HOH          6.5130     2.9290     5.5530 ho         1 OIN       0.442000
     40 H5           4.0150     0.9750     8.4340 ha         1 OIN       0.115000
     41 H4           5.5500    -0.6490     9.5050 ha         1 OIN       0.114500
     42 H3           7.4880    -1.5700     8.2370 ha         1 OIN       0.114000
     43 H2           7.8830    -0.8550     5.8820 ha         1 OIN       0.114500
     44 H1           6.3640     0.7620     4.7960 ha         1 OIN       0.115000
@<TRIPOS>BOND
     1     1     2 1   
     2     1    22 1   
     3     1    23 1   
     4     1    24 1   
     5     2     3 1   
     6     2     6 1   
     7     3     4 1   
     8     3     9 1   
     9     3    25 1   
    10     4     5 1   
    11     4    26 1   
    12     4    27 1   
    13     5     6 1   
    14     5    28 1   
    15     5    29 1   
    16     6     7 1   
    17     6    30 1   
    18     7     8 1   
    19     7    31 1   
    20     7    32 1   
    21     8     9 1   
    22     8    10 1   
    23     8    33 1   
    24     9    34 1   
    25     9    35 1   
    26    10    11 1   
    27    11    12 2   
    28    11    13 1   
    29    13    14 1   
    30    13    16 1   
    31    13    36 1   
    32    14    15 1   
    33    14    37 1   
    34    14    38 1   
    35    15    39 1   
    36    16    17 ar  
    37    16    21 ar  
    38    17    18 ar  
    39    17    40 1   
    40    18    19 ar  
    41    18    41 1   
    42    19    20 ar  
    43    19    42 1   
    44    20    21 ar  
    45    20    43 1   
    46    21    44 1   
@<TRIPOS>SUBSTRUCTURE
     1 OIN         1 TEMP              0 ****  ****    0 ROOT
