@<TRIPOS>MOLECULE
OIN
   44    46     1     0     0
SMALL
abcg2


@<TRIPOS>ATOM
      1 C10         -0.7620    -2.1130     1.8370 c3         1 OIN       0.145100
      2 N            0.1180    -1.2020     2.5430 n3         1 OIN      -0.691600
      3 C11          1.0670    -0.5250     1.6610 c5         1 OIN       0.159500
      4 C17          0.2440     0.5790     0.9530 c5         1 OIN      -0.111400
      5 C16         -0.8930     0.8790     1.9510 c5         1 OIN      -0.111400
      6 C15         -0.5930    -0.0700     3.1350 c5         1 OIN       0.159500
      7 C14          0.3310     0.5780     4.1670 c6         1 OIN      -0.078900
      8 C13          1.5940     1.0950     3.4920 c6         1 OIN       0.180300
      9 C12          2.1770     0.0640     2.5320 c6         1 OIN      -0.078900
     10 O2           2.5260     1.4230     4.5370 os         1 OIN      -0.442100
     11 C7           3.5120     2.2680     4.2880 c          1 OIN       0.605100
     12 O3           3.6820     2.8180     3.2280 o          1 OIN      -0.484000
     13 C9           4.3620     2.5240     5.5190 c3         1 OIN      -0.116400
     14 C8           5.7340     3.0930     5.1430 c3         1 OIN       0.175600
     15 OH           6.5310     2.1970     4.4130 oh         1 OIN      -0.644000
     16 C6           4.4930     1.3430     6.4470 ca         1 OIN      -0.075300
     17 C5           4.3450     1.5280     7.8190 ca         1 OIN      -0.102000
     18 C4           4.5400     0.4790     8.7080 ca         1 OIN      -0.109000
     19 C3           4.8890    -0.7770     8.2330 ca         1 OIN      -0.106000
     20 C2           5.0390    -0.9750     6.8670 ca         1 OIN      -0.109000
     21 C1           4.8450     0.0760     5.9810 ca         1 OIN      -0.102000
     22 H101        -1.4350    -2.5950     2.5470 h1         1 OIN       0.032367
     23 H102        -0.1700    -2.8950     1.3610 h1         1 OIN       0.032367
     24 H103        -1.3820    -1.6470     1.0590 h1         1 OIN       0.032367
     25 H11          1.5050    -1.2350     0.9570 h1         1 OIN       0.066700
     26 H171        -0.1480     0.2150     0.0030 hc         1 OIN       0.049700
     27 H172         0.8470     1.4600     0.7210 hc         1 OIN       0.049700
     28 H161        -0.9240     1.9250     2.2610 hc         1 OIN       0.049700
     29 H162        -1.8680     0.6520     1.5160 hc         1 OIN       0.049700
     30 H15         -1.5020    -0.4110     3.6340 h1         1 OIN       0.066700
     31 H141        -0.1840     1.3990     4.6730 hc         1 OIN       0.061700
     32 H142         0.5850    -0.1680     4.9240 hc         1 OIN       0.061700
     33 H13          1.3560     2.0090     2.9410 h1         1 OIN       0.057700
     34 H121         2.6480    -0.7430     3.1000 hc         1 OIN       0.061700
     35 H122         2.9440     0.5210     1.9030 hc         1 OIN       0.061700
     36 H9           3.8410     3.3240     6.0620 hc         1 OIN       0.080700
     37 H81          6.2280     3.4180     6.0660 h1         1 OIN       0.053700
     38 H82          5.5980     3.9820     4.5260 h1         1 OIN       0.053700
     39 HOH          6.8590     1.5200     5.0130 ho         1 OIN       0.442000
     40 H5           4.0690     2.5060     8.1970 ha         1 OIN       0.115000
     41 H4           4.4160     0.6460     9.7700 ha         1 OIN       0.114500
     42 H3           5.0400    -1.5980     8.9230 ha         1 OIN       0.114000
     43 H2           5.3090    -1.9520     6.4870 ha         1 OIN       0.114500
     44 H1           4.9540    -0.1100     4.9190 ha         1 OIN       0.115000
@<TRIPOS>BOND
     1     1     2 1   
     2     1    22 1   
     3     1    23 1   
     4     1    24 1   
     5     2     3 1   
     6     2     6 1   
     7     3     4 1   
     8     3     9 1   
     9     3    25 1   
    10     4     5 1   
    11     4    26 1   
    12     4    27 1   
    13     5     6 1   
    14     5    28 1   
    15     5    29 1   
    16     6     7 1   
    17     6    30 1   
    18     7     8 1   
    19     7    31 1   
    20     7    32 1   
    21     8     9 1   
    22     8    10 1   
    23     8    33 1   
    24     9    34 1   
    25     9    35 1   
    26    10    11 1   
    27    11    12 2   
    28    11    13 1   
    29    13    14 1   
    30    13    16 1   
    31    13    36 1   
    32    14    15 1   
    33    14    37 1   
    34    14    38 1   
    35    15    39 1   
    36    16    17 ar  
    37    16    21 ar  
    38    17    18 ar  
    39    17    40 1   
    40    18    19 ar  
    41    18    41 1   
    42    19    20 ar  
    43    19    42 1   
    44    20    21 ar  
    45    20    43 1   
    46    21    44 1   
@<TRIPOS>SUBSTRUCTURE
     1 OIN         1 TEMP              0 ****  ****    0 ROOT
