@<TRIPOS>MOLECULE
OIO
   32    32     1     0     0
SMALL
No Charge or Current Charge


@<TRIPOS>ATOM
      1 C1          -3.0710     1.0150    -0.0680 c3         1 OIO       0.068600
      2 C2          -1.8270     0.1050     0.0020 c3         1 OIO      -0.098400
      3 C3          -0.5010     0.8930    -0.0670 c3         1 OIO      -0.075400
      4 C4           0.7460    -0.0160     0.0020 c3         1 OIO      -0.074400
      5 C5           2.0720     0.7720    -0.0670 c3         1 OIO      -0.079400
      6 C6           3.3200    -0.1360     0.0020 c3         1 OIO      -0.053400
      7 C7           4.6520     0.6510    -0.0670 c3         1 OIO      -0.204400
      8 C8           5.8460    -0.3170     0.0070 c          1 OIO       0.717000
      9 O9           6.2750    -0.7850    -1.0370 o          1 OIO      -0.742500
     10 O10          6.2830    -0.6110     1.1090 o          1 OIO      -0.742500
     11 N11         -4.3310     0.2620    -0.0020 na         1 OIO      -0.161500
     12 C12         -5.0020    -0.3060    -1.0640 cc         1 OIO      -0.231000
     13 C13         -6.1130    -0.8990    -0.5230 cd         1 OIO       0.218900
     14 N14         -6.1460    -0.7130     0.8440 nd         1 OIO      -0.683000
     15 C15         -5.0600    -0.0110     1.1380 cc         1 OIO       0.385400
     16 H1          -3.0460     1.7330     0.7630 h1         1 OIO       0.057200
     17 H1A         -3.0530     1.5860    -1.0050 h1         1 OIO       0.057200
     18 H2          -1.8570    -0.4730     0.9340 hc         1 OIO       0.052700
     19 H2A         -1.8640    -0.6160    -0.8240 hc         1 OIO       0.052700
     20 H3          -0.4740     1.4710    -0.9990 hc         1 OIO       0.034700
     21 H3A         -0.4680     1.6140     0.7590 hc         1 OIO       0.034700
     22 H4           0.7180    -0.5940     0.9350 hc         1 OIO       0.037700
     23 H4A          0.7120    -0.7370    -0.8240 hc         1 OIO       0.037700
     24 H5           2.0980     1.3510    -0.9990 hc         1 OIO       0.024700
     25 H5A          2.1050     1.4940     0.7590 hc         1 OIO       0.024700
     26 H6           3.2920    -0.7160     0.9340 hc         1 OIO       0.039200
     27 H6A          3.2850    -0.8580    -0.8230 hc         1 OIO       0.039200
     28 H7           4.6410     1.1750    -1.0310 hc         1 OIO       0.014700
     29 H7A          4.6480     1.3240     0.8000 hc         1 OIO       0.014700
     30 H12         -4.6560    -0.2510    -2.0890 h4         1 OIO       0.155000
     31 H13         -6.8890    -1.4490    -1.0410 h4         1 OIO       0.031100
     32 H15         -4.7500     0.3230     2.1210 h5         1 OIO       0.051100
@<TRIPOS>BOND
     1     1     2 1   
     2     1    11 1   
     3     1    16 1   
     4     1    17 1   
     5     2     3 1   
     6     2    18 1   
     7     2    19 1   
     8     3     4 1   
     9     3    20 1   
    10     3    21 1   
    11     4     5 1   
    12     4    22 1   
    13     4    23 1   
    14     5     6 1   
    15     5    24 1   
    16     5    25 1   
    17     6     7 1   
    18     6    26 1   
    19     6    27 1   
    20     7     8 1   
    21     7    28 1   
    22     7    29 1   
    23     8     9 1   
    24     8    10 1   
    25    11    12 1   
    26    11    15 1   
    27    12    13 2   
    28    12    30 1   
    29    13    14 1   
    30    13    31 1   
    31    14    15 2   
    32    15    32 1   
@<TRIPOS>SUBSTRUCTURE
     1 OIO         1 TEMP              0 ****  ****    0 ROOT
