@<TRIPOS>MOLECULE
OIO
   32    32     1     0     0
SMALL
bcc


@<TRIPOS>ATOM
      1 C1          -3.0280     1.0190     0.0100 c3         1 OIO       0.039300
      2 C2          -1.8270     0.0850    -0.0360 c3         1 OIO      -0.098400
      3 C3          -0.5140     0.8570    -0.0150 c3         1 OIO      -0.075400
      4 C4           0.7090    -0.0510    -0.0460 c3         1 OIO      -0.074400
      5 C5           2.0240     0.7170    -0.0170 c3         1 OIO      -0.079400
      6 C6           3.2500    -0.1890    -0.0360 c3         1 OIO      -0.053400
      7 C7           4.5550     0.5880     0.0100 c3         1 OIO      -0.204400
      8 C8           5.8450    -0.2510     0.0060 c          1 OIO       0.927600
      9 O9           5.7420    -1.4820    -0.1650 o          1 OIO      -0.847800
     10 O10          6.9100     0.3830     0.1690 o          1 OIO      -0.847800
     11 N11         -4.2920     0.3070    -0.0020 na         1 OIO      -0.182900
     12 C12         -4.9110    -0.2350    -1.0920 cc         1 OIO      -0.263600
     13 C13         -6.0220    -0.8660    -0.6080 cd         1 OIO       0.284200
     14 N14         -6.0910    -0.7250     0.7490 nd         1 OIO      -0.683000
     15 C15         -5.0360    -0.0210     1.0750 cc         1 OIO       0.385400
     16 H1          -3.0010     1.6310     0.9120 h1         1 OIO       0.057200
     17 H1A         -3.0130     1.7020    -0.8410 h1         1 OIO       0.057200
     18 H2          -1.8710    -0.5990     0.8180 hc         1 OIO       0.052700
     19 H2A         -1.8790    -0.5330    -0.9380 hc         1 OIO       0.052700
     20 H3          -0.4800     1.5420    -0.8690 hc         1 OIO       0.034700
     21 H3A         -0.4750     1.4860     0.8810 hc         1 OIO       0.034700
     22 H4           0.6700    -0.7390     0.8060 hc         1 OIO       0.037700
     23 H4A          0.6730    -0.6790    -0.9430 hc         1 OIO       0.037700
     24 H5           2.0630     1.4030    -0.8710 hc         1 OIO       0.024700
     25 H5A          2.0520     1.3500     0.8780 hc         1 OIO       0.024700
     26 H6           3.1990    -0.8780     0.8120 hc         1 OIO       0.039200
     27 H6A          3.2210    -0.8140    -0.9330 hc         1 OIO       0.039200
     28 H7           4.6000     1.2780    -0.8430 hc         1 OIO       0.014700
     29 H7A          4.5690     1.2350     0.8940 hc         1 OIO       0.014700
     30 H12         -4.5210    -0.1220    -2.0900 h4         1 OIO       0.173000
     31 H13         -6.7720    -1.4050    -1.1660 h4         1 OIO       0.031100
     32 H15         -4.7610     0.2860     2.0730 h5         1 OIO       0.051100
@<TRIPOS>BOND
     1     1     2 1   
     2     1    11 1   
     3     1    16 1   
     4     1    17 1   
     5     2     3 1   
     6     2    18 1   
     7     2    19 1   
     8     3     4 1   
     9     3    20 1   
    10     3    21 1   
    11     4     5 1   
    12     4    22 1   
    13     4    23 1   
    14     5     6 1   
    15     5    24 1   
    16     5    25 1   
    17     6     7 1   
    18     6    26 1   
    19     6    27 1   
    20     7     8 1   
    21     7    28 1   
    22     7    29 1   
    23     8     9 1   
    24     8    10 1   
    25    11    12 1   
    26    11    15 1   
    27    12    13 2   
    28    12    30 1   
    29    13    14 1   
    30    13    31 1   
    31    14    15 2   
    32    15    32 1   
@<TRIPOS>SUBSTRUCTURE
     1 OIO         1 TEMP              0 ****  ****    0 ROOT
