@<TRIPOS>MOLECULE
OIR
   51    52     1     0     0
SMALL
No Charge or Current Charge


@<TRIPOS>ATOM
      1 O19          0.4970    -0.2150     2.1210 o          1 OIR      -0.597100
      2 C18          0.7290    -0.4810     0.9480 c          1 OIR       0.603100
      3 C20          2.1410    -0.8690     0.4450 c3         1 OIR       0.011300
      4 C21          3.1360     0.2990     0.6450 c3         1 OIR      -0.024100
      5 C23          4.4810     0.0520    -0.0270 ca         1 OIR      -0.072300
      6 C24          4.6100     0.1930    -1.4230 ca         1 OIR      -0.097500
      7 C25          5.8490    -0.0320    -2.0480 ca         1 OIR      -0.113000
      8 C26          6.9680    -0.3970    -1.2800 ca         1 OIR      -0.114000
      9 C27          6.8460    -0.5370     0.1120 ca         1 OIR      -0.113000
     10 C28          5.6070    -0.3130     0.7370 ca         1 OIR      -0.097500
     11 S26          2.7010    -2.4600     1.2480 sh         1 OIR      -0.429800
     12 N9          -0.2570    -0.4700    -0.0180 ns         1 OIR      -0.469900
     13 C2          -1.6500    -0.0120     0.1940 c3         1 OIR       0.028700
     14 C11         -2.6530    -0.9600    -0.5230 c          1 OIR       0.579100
     15 O12         -2.3110    -1.7870    -1.3620 o          1 OIR      -0.643100
     16 N13         -3.9730    -0.8030    -0.1490 ns         1 OIR      -0.454900
     17 C14         -5.1160    -1.5950    -0.6640 c3         1 OIR      -0.042300
     18 C15         -6.4590    -0.8280    -0.4510 c          1 OIR       0.716000
     19 O16         -7.2630    -0.8080    -1.3730 o          1 OIR      -0.725500
     20 O17         -6.6050    -0.1840     0.5800 o          1 OIR      -0.725500
     21 C19         -5.1610    -3.0020    -0.0260 c3         1 OIR      -0.079100
     22 C1          -1.8240     1.4560    -0.2790 c3         1 OIR      -0.049100
     23 C3          -0.7780     2.4080     0.2940 ca         1 OIR      -0.069300
     24 C4           0.2790     2.8760    -0.5140 ca         1 OIR      -0.108500
     25 C5           1.2490     3.7420     0.0190 ca         1 OIR      -0.113000
     26 C6           1.1700     4.1460     1.3620 ca         1 OIR      -0.121000
     27 C7           0.1180     3.6850     2.1710 ca         1 OIR      -0.113000
     28 C8          -0.8540     2.8200     1.6380 ca         1 OIR      -0.108500
     29 H20          2.0620    -1.0630    -0.6320 h1         1 OIR       0.083700
     30 H211         2.6920     1.2150     0.2360 hc         1 OIR       0.064700
     31 H212         3.2670     0.4840     1.7180 hc         1 OIR       0.064700
     32 H24          3.7500     0.4770    -2.0250 ha         1 OIR       0.111500
     33 H25          5.9420     0.0780    -3.1260 ha         1 OIR       0.107000
     34 H1           7.9270    -0.5710    -1.7640 ha         1 OIR       0.105000
     35 H27          7.7120    -0.8200     0.7080 ha         1 OIR       0.107000
     36 H28          5.5220    -0.4260     1.8160 ha         1 OIR       0.111500
     37 H26          2.5550    -2.0350     2.5290 hs         1 OIR       0.230800
     38 HN9          0.0070    -0.7670    -0.9510 hn         1 OIR       0.316500
     39 H2          -1.8790    -0.0630     1.2670 h1         1 OIR       0.076700
     40 H13         -4.1720    -0.0940     0.5490 hn         1 OIR       0.339500
     41 H14         -4.9820    -1.7130    -1.7470 h1         1 OIR       0.047700
     42 H191        -5.2870    -2.9320     1.0610 hc         1 OIR       0.027367
     43 H192        -6.0000    -3.5790    -0.4320 hc         1 OIR       0.027367
     44 H193        -4.2370    -3.5550    -0.2310 hc         1 OIR       0.027367
     45 H11         -1.7880     1.4780    -1.3760 hc         1 OIR       0.072200
     46 H12         -2.8270     1.8080    -0.0080 hc         1 OIR       0.072200
     47 H4           0.3520     2.5650    -1.5530 ha         1 OIR       0.116500
     48 H5           2.0630     4.0980    -0.6080 ha         1 OIR       0.106500
     49 H6           1.9220     4.8140     1.7750 ha         1 OIR       0.103000
     50 H7           0.0560     3.9970     3.2120 ha         1 OIR       0.106500
     51 H8          -1.6620     2.4640     2.2730 ha         1 OIR       0.116500
@<TRIPOS>BOND
     1     1     2 2   
     2     2     3 1   
     3     2    12 1   
     4     3     4 1   
     5     3    11 1   
     6     3    29 1   
     7     4     5 1   
     8     4    30 1   
     9     4    31 1   
    10     5     6 ar  
    11     5    10 ar  
    12     6     7 ar  
    13     6    32 1   
    14     7     8 ar  
    15     7    33 1   
    16     8     9 ar  
    17     8    34 1   
    18     9    10 ar  
    19     9    35 1   
    20    10    36 1   
    21    11    37 1   
    22    12    13 1   
    23    12    38 1   
    24    13    14 1   
    25    13    22 1   
    26    13    39 1   
    27    14    15 2   
    28    14    16 1   
    29    16    17 1   
    30    16    40 1   
    31    17    18 1   
    32    17    21 1   
    33    17    41 1   
    34    18    19 1   
    35    18    20 1   
    36    21    42 1   
    37    21    43 1   
    38    21    44 1   
    39    22    23 1   
    40    22    45 1   
    41    22    46 1   
    42    23    24 ar  
    43    23    28 ar  
    44    24    25 ar  
    45    24    47 1   
    46    25    26 ar  
    47    25    48 1   
    48    26    27 ar  
    49    26    49 1   
    50    27    28 ar  
    51    27    50 1   
    52    28    51 1   
@<TRIPOS>SUBSTRUCTURE
     1 OIR         1 TEMP              0 ****  ****    0 ROOT
