@<TRIPOS>MOLECULE
OIR
   51    52     1     0     0
SMALL
bcc


@<TRIPOS>ATOM
      1 O19          0.0890    -1.2330     1.2670 o          1 OIR      -0.597100
      2 C18          0.5650    -0.6200     0.3240 c          1 OIR       0.670100
      3 C20          2.0070    -0.8150    -0.1090 c3         1 OIR      -0.036600
      4 C21          2.9530    -0.6720     1.0860 c3         1 OIR      -0.024100
      5 C23          4.4020    -0.7340     0.7000 ca         1 OIR      -0.072300
      6 C24          5.0390     0.3890     0.1750 ca         1 OIR      -0.115500
      7 C25          6.3750     0.3410    -0.1980 ca         1 OIR      -0.131000
      8 C26          7.0970    -0.8360    -0.0480 ca         1 OIR      -0.132000
      9 C27          6.4740    -1.9610     0.4760 ca         1 OIR      -0.131000
     10 C28          5.1360    -1.9080     0.8440 ca         1 OIR      -0.115500
     11 S26          2.1540    -2.4200    -0.9590 sh         1 OIR      -0.381900
     12 N9          -0.1300     0.2850    -0.3780 ns         1 OIR      -0.536900
     13 C2          -1.5180     0.5430    -0.1020 c3         1 OIR       0.028700
     14 C11         -2.3830    -0.6700    -0.4580 c          1 OIR       0.646100
     15 O12         -2.1270    -1.3660    -1.4300 o          1 OIR      -0.643100
     16 N13         -3.4400    -0.8330     0.3360 ns         1 OIR      -0.521900
     17 C14         -4.4990    -1.7960     0.1310 c3         1 OIR      -0.042300
     18 C15         -5.7390    -1.3670     0.9540 c          1 OIR       0.926600
     19 O16         -6.7610    -2.0500     0.7740 o          1 OIR      -0.830800
     20 O17         -5.6030    -0.3980     1.7270 o          1 OIR      -0.830800
     21 C19         -4.0670    -3.2090     0.5150 c3         1 OIR      -0.079100
     22 C1          -1.9980     1.7580    -0.9080 c3         1 OIR      -0.049100
     23 C3          -1.2120     2.9990    -0.5860 ca         1 OIR      -0.069300
     24 C4          -0.2440     3.4810    -1.4630 ca         1 OIR      -0.126500
     25 C5           0.5040     4.6080    -1.1480 ca         1 OIR      -0.131000
     26 C6           0.2920     5.2700     0.0530 ca         1 OIR      -0.139000
     27 C7          -0.6740     4.7990     0.9350 ca         1 OIR      -0.131000
     28 C8          -1.4180     3.6730     0.6160 ca         1 OIR      -0.126500
     29 H20          2.2750    -0.0830    -0.8750 h1         1 OIR       0.083700
     30 H211         2.7440     0.2910     1.5610 hc         1 OIR       0.064700
     31 H212         2.7210    -1.4440     1.8220 hc         1 OIR       0.064700
     32 H24          4.4840     1.3140     0.0620 ha         1 OIR       0.129500
     33 H25          6.8540     1.2250    -0.6000 ha         1 OIR       0.125000
     34 H1           8.1410    -0.8750    -0.3320 ha         1 OIR       0.123000
     35 H27          7.0300    -2.8810     0.6000 ha         1 OIR       0.125000
     36 H28          4.6570    -2.7890     1.2540 ha         1 OIR       0.129500
     37 H26          1.8500    -3.1860     0.0960 hs         1 OIR       0.230800
     38 HN9          0.2920     0.7050    -1.1910 hn         1 OIR       0.316500
     39 H2          -1.6300     0.7680     0.9630 h1         1 OIR       0.076700
     40 H13         -3.6050    -0.1910     1.1000 hn         1 OIR       0.339500
     41 H14         -4.7780    -1.7940    -0.9280 h1         1 OIR       0.047700
     42 H191        -3.7960    -3.2600     1.5710 hc         1 OIR       0.027367
     43 H192        -4.8770    -3.9140     0.3350 hc         1 OIR       0.027367
     44 H193        -3.2060    -3.5280    -0.0700 hc         1 OIR       0.027367
     45 H11         -1.9310     1.5350    -1.9760 hc         1 OIR       0.072200
     46 H12         -3.0550     1.9130    -0.6850 hc         1 OIR       0.072200
     47 H4          -0.0760     2.9740    -2.4070 ha         1 OIR       0.134500
     48 H5           1.2510     4.9710    -1.8430 ha         1 OIR       0.124500
     49 H6           0.8710     6.1500     0.3010 ha         1 OIR       0.121000
     50 H7          -0.8490     5.3110     1.8730 ha         1 OIR       0.124500
     51 H8          -2.1700     3.3130     1.3100 ha         1 OIR       0.134500
@<TRIPOS>BOND
     1     1     2 2   
     2     2     3 1   
     3     2    12 1   
     4     3     4 1   
     5     3    11 1   
     6     3    29 1   
     7     4     5 1   
     8     4    30 1   
     9     4    31 1   
    10     5     6 ar  
    11     5    10 ar  
    12     6     7 ar  
    13     6    32 1   
    14     7     8 ar  
    15     7    33 1   
    16     8     9 ar  
    17     8    34 1   
    18     9    10 ar  
    19     9    35 1   
    20    10    36 1   
    21    11    37 1   
    22    12    13 1   
    23    12    38 1   
    24    13    14 1   
    25    13    22 1   
    26    13    39 1   
    27    14    15 2   
    28    14    16 1   
    29    16    17 1   
    30    16    40 1   
    31    17    18 1   
    32    17    21 1   
    33    17    41 1   
    34    18    19 1   
    35    18    20 1   
    36    21    42 1   
    37    21    43 1   
    38    21    44 1   
    39    22    23 1   
    40    22    45 1   
    41    22    46 1   
    42    23    24 ar  
    43    23    28 ar  
    44    24    25 ar  
    45    24    47 1   
    46    25    26 ar  
    47    25    48 1   
    48    26    27 ar  
    49    26    49 1   
    50    27    28 ar  
    51    27    50 1   
    52    28    51 1   
@<TRIPOS>SUBSTRUCTURE
     1 OIR         1 TEMP              0 ****  ****    0 ROOT
