@<TRIPOS>MOLECULE
OIS
   94    97     1     0     0
SMALL
No Charge or Current Charge


@<TRIPOS>ATOM
      1 N6           7.1270    30.0930     7.3250 n2         1 OIS      -0.316700
      2 N1          14.9060    21.9750     5.3510 ns         1 OIS      -0.499900
      3 C2          13.9310    22.7350     6.1450 c3         1 OIS       0.126700
      4 N2          10.9870    23.8250     5.9530 n3         1 OIS      -0.752500
      5 N3          20.1870    18.2890     9.3360 nc         1 OIS      -0.654000
      6 C4          14.4880    22.9790     7.5760 c3         1 OIS      -0.034100
      7 N4          16.8540    19.0730     5.2900 n          1 OIS      -0.411800
      8 C5          12.2100    24.6850     5.9620 c3         1 OIS       0.186800
      9 C6          16.2750    17.9030     5.9910 c5         1 OIS       0.079000
     10 O1          14.5790    24.9740     5.3360 oh         1 OIS      -0.662000
     11 O2           8.9670    22.9530     7.2430 o          1 OIS      -0.539500
     12 O3          11.1040    23.5600     8.4830 o          1 OIS      -0.539500
     13 C1          14.8580    20.6130     5.1400 c          1 OIS       0.572100
     14 C3          13.4950    24.0210     5.3770 c3         1 OIS       0.149300
     15 C7          10.7010    23.6300     3.3810 c3         1 OIS      -0.063700
     16 C8          10.1110    24.0230     4.7620 c3         1 OIS       0.210800
     17 S1          10.1210    23.8390     7.4300 sy         1 OIS       1.196600
     18 C11         14.8710    21.6840     8.2870 ca         1 OIS      -0.080300
     19 C12         16.2120    21.2490     8.3130 ca         1 OIS      -0.098500
     20 C13         16.5530    20.0430     8.9460 ca         1 OIS      -0.119000
     21 C14         15.5590    19.2620     9.5580 ca         1 OIS      -0.118000
     22 C15         14.2210    19.6890     9.5360 ca         1 OIS      -0.119000
     23 C16         13.8780    20.8970     8.9020 ca         1 OIS      -0.098500
     24 C17          9.7090    23.9660     2.2440 c3         1 OIS      -0.091100
     25 C18         11.1140    22.1380     3.3180 c3         1 OIS      -0.091100
     26 C19         16.1000    20.0210     4.4190 c3         1 OIS       0.054700
     27 C20         18.2080    19.2180     5.5290 c          1 OIS       0.600000
     28 C21         15.7220    19.3940     3.0400 c3         1 OIS      -0.057700
     29 C22         14.9710    20.3970     2.1260 c3         1 OIS      -0.087600
     30 C23         16.9520    18.8120     2.3000 c3         1 OIS      -0.087600
     31 N5          18.6160    18.1900     6.3550 n          1 OIS      -0.417800
     32 O5          18.9240    20.1060     5.0910 o          1 OIS      -0.610000
     33 C31         17.5170    17.2760     6.7250 c5         1 OIS       0.088000
     34 C32          8.3360    25.9370     6.9700 ca         1 OIS      -0.022500
     35 C34          7.9020    27.2700     7.0570 ca         1 OIS      -0.103500
     36 C35          8.6820    28.2390     7.7300 ca         1 OIS      -0.087900
     37 C36          9.9020    27.8420     8.3140 ca         1 OIS      -0.103500
     38 C37         10.3400    26.5090     8.2290 ca         1 OIS      -0.022500
     39 C38          9.5610    25.5500     7.5500 ca         1 OIS      -0.300500
     40 C40          8.2460    29.6670     7.8400 ce         1 OIS       0.412800
     41 C10         20.0030    18.0980     6.8590 c3         1 OIS       0.097700
     42 C24         20.2050    18.9160     8.1130 cc         1 OIS       0.261300
     43 C9          20.3900    20.2780     8.1480 cd         1 OIS      -0.235000
     44 C28         20.3550    19.1820    10.3000 cd         1 OIS       0.442700
     45 S2          20.5490    20.8560     9.7960 ss         1 OIS      -0.043400
     46 O7           6.8670    31.4640     7.5210 oh         1 OIS      -0.518000
     47 C25         20.3590    18.7780    11.7450 c3         1 OIS      -0.127400
     48 H1          15.7270    22.4680     5.0210 hn         1 OIS       0.334500
     49 H2          13.0290    22.1180     6.2540 h1         1 OIS       0.095700
     50 H41         15.3600    23.6410     7.5170 hc         1 OIS       0.061700
     51 H42         13.7460    23.5180     8.1740 hc         1 OIS       0.061700
     52 H51         12.0110    25.6140     5.4090 h1         1 OIS       0.055700
     53 H52         12.4630    25.0040     6.9800 h1         1 OIS       0.055700
     54 H6          15.8250    17.1940     5.2840 h1         1 OIS       0.066200
     55 HO1         14.3780    25.6200     4.6240 ho         1 OIS       0.441000
     56 H3          13.2750    23.7060     4.3530 h1         1 OIS       0.049700
     57 H7          11.5870    24.2450     3.1960 hc         1 OIS       0.041700
     58 H81          9.1910    23.4340     4.8690 h1         1 OIS       0.050700
     59 H82          9.7990    25.0750     4.7130 h1         1 OIS       0.050700
     60 H12         16.9890    21.8410     7.8340 ha         1 OIS       0.125500
     61 H13         17.5870    19.7100     8.9590 ha         1 OIS       0.110500
     62 H14         15.8250    18.3270    10.0460 ha         1 OIS       0.104000
     63 H15         13.4500    19.0850    10.0070 ha         1 OIS       0.110500
     64 H16         12.8390    21.2180     8.8840 ha         1 OIS       0.125500
     65 H171        10.1460    23.7340     1.2660 hc         1 OIS       0.041200
     66 H172         8.7810    23.3900     2.3500 hc         1 OIS       0.041200
     67 H173         9.4530    25.0330     2.2550 hc         1 OIS       0.041200
     68 H181        11.5770    21.9050     2.3510 hc         1 OIS       0.041200
     69 H182        11.8350    21.8880     4.1040 hc         1 OIS       0.041200
     70 H183        10.2400    21.4880     3.4450 hc         1 OIS       0.041200
     71 H19         16.7560    20.8730     4.2030 h1         1 OIS       0.082700
     72 H21         15.0370    18.5590     3.2330 hc         1 OIS       0.068700
     73 H221        14.7270    19.9340     1.1630 hc         1 OIS       0.037200
     74 H222        14.0280    20.7240     2.5810 hc         1 OIS       0.037200
     75 H223        15.5860    21.2840     1.9320 hc         1 OIS       0.037200
     76 H231        16.6590    18.3910     1.3310 hc         1 OIS       0.037200
     77 H232        17.7040    19.5900     2.1220 hc         1 OIS       0.037200
     78 H233        17.4200    18.0080     2.8800 hc         1 OIS       0.037200
     79 H5          17.3710    17.2500     7.8130 h1         1 OIS       0.057700
     80 H31         17.7170    16.2550     6.3760 h1         1 OIS       0.057700
     81 H32          7.7160    25.2090     6.4480 ha         1 OIS       0.137000
     82 H34          6.9540    27.5450     6.5990 ha         1 OIS       0.129000
     83 H36         10.5170    28.5690     8.8400 ha         1 OIS       0.129000
     84 H37         11.2850    26.2290     8.6930 ha         1 OIS       0.137000
     85 H402         8.9170    30.3410     8.3790 h4         1 OIS       0.014800
     86 H101        20.2380    17.0470     7.0680 h1         1 OIS       0.068700
     87 H102        20.7000    18.4450     6.0850 h1         1 OIS       0.068700
     88 H9          20.4260    20.9630     7.3110 h4         1 OIS       0.168000
     89 HO7          5.9980    31.6280     7.0800 ho         1 OIS       0.471000
     90 H251        20.6290    19.6220    12.3900 hc         1 OIS       0.058700
     91 H252        19.3690    18.4230    12.0510 hc         1 OIS       0.058700
     92 H253        21.0800    17.9730    11.9240 hc         1 OIS       0.058700
     93 H4          15.5060    18.2090     6.7130 h1         1 OIS       0.066200
     94 O4          13.8960    19.9370     5.4840 o          1 OIS      -0.606100
@<TRIPOS>BOND
     1     1    40 2   
     2     1    46 1   
     3     2     3 1   
     4     2    13 1   
     5     2    48 1   
     6     3     6 1   
     7     3    14 1   
     8     3    49 1   
     9     4     8 1   
    10     4    16 1   
    11     4    17 1   
    12     5    42 1   
    13     5    44 2   
    14     6    18 1   
    15     6    50 1   
    16     6    51 1   
    17     7     9 1   
    18     7    26 1   
    19     7    27 1   
    20     8    14 1   
    21     8    52 1   
    22     8    53 1   
    23     9    33 1   
    24     9    54 1   
    25     9    93 1   
    26    10    14 1   
    27    10    55 1   
    28    11    17 2   
    29    12    17 2   
    30    13    26 1   
    31    13    94 2   
    32    14    56 1   
    33    15    16 1   
    34    15    24 1   
    35    15    25 1   
    36    15    57 1   
    37    16    58 1   
    38    16    59 1   
    39    17    39 1   
    40    18    19 ar  
    41    18    23 ar  
    42    19    20 ar  
    43    19    60 1   
    44    20    21 ar  
    45    20    61 1   
    46    21    22 ar  
    47    21    62 1   
    48    22    23 ar  
    49    22    63 1   
    50    23    64 1   
    51    24    65 1   
    52    24    66 1   
    53    24    67 1   
    54    25    68 1   
    55    25    69 1   
    56    25    70 1   
    57    26    28 1   
    58    26    71 1   
    59    27    31 1   
    60    27    32 2   
    61    28    29 1   
    62    28    30 1   
    63    28    72 1   
    64    29    73 1   
    65    29    74 1   
    66    29    75 1   
    67    30    76 1   
    68    30    77 1   
    69    30    78 1   
    70    31    33 1   
    71    31    41 1   
    72    33    79 1   
    73    33    80 1   
    74    34    35 ar  
    75    34    39 ar  
    76    34    81 1   
    77    35    36 ar  
    78    35    82 1   
    79    36    37 ar  
    80    36    40 1   
    81    37    38 ar  
    82    37    83 1   
    83    38    39 ar  
    84    38    84 1   
    85    40    85 1   
    86    41    42 1   
    87    41    86 1   
    88    41    87 1   
    89    42    43 2   
    90    43    45 1   
    91    43    88 1   
    92    44    45 1   
    93    44    47 1   
    94    46    89 1   
    95    47    90 1   
    96    47    91 1   
    97    47    92 1   
@<TRIPOS>SUBSTRUCTURE
     1 OIS         1 TEMP              0 ****  ****    0 ROOT
