@<TRIPOS>MOLECULE
OIS
   94    97     1     0     0
SMALL
abcg2


@<TRIPOS>ATOM
      1 N6           7.3960    29.7380     8.0730 n2         1 OIS      -0.316700
      2 N1          15.0090    21.7530     5.2340 ns         1 OIS      -0.499900
      3 C2          14.1350    22.6080     6.0220 c3         1 OIS       0.126700
      4 N2          11.3870    24.0590     5.6230 n3         1 OIS      -0.752500
      5 N3          19.7710    19.0120     9.2840 nc         1 OIS      -0.654000
      6 C4          14.7390    22.8860     7.4100 c3         1 OIS      -0.034100
      7 N4          16.8630    19.2430     4.9300 n          1 OIS      -0.411800
      8 C5          12.6930    24.7260     5.7350 c3         1 OIS       0.186800
      9 C6          16.6290    18.1030     5.8120 c5         1 OIS       0.079000
     10 O1          15.0440    24.6590     5.1850 oh         1 OIS      -0.662000
     11 O2           9.4370    22.9440     6.6960 o          1 OIS      -0.539500
     12 O3          11.5020    23.3950     8.0140 o          1 OIS      -0.539500
     13 C1          14.7540    20.4710     4.9230 c          1 OIS       0.572100
     14 C3          13.8510    23.8710     5.2080 c3         1 OIS       0.149300
     15 C7          11.0410    23.5350     3.1770 c3         1 OIS      -0.063700
     16 C8          10.5990    24.3360     4.4060 c3         1 OIS       0.210800
     17 S1          10.5500    23.8080     7.0120 sy         1 OIS       1.196600
     18 C11         14.8860    21.6330     8.2310 ca         1 OIS      -0.080300
     19 C12         16.1180    20.9910     8.3410 ca         1 OIS      -0.098500
     20 C13         16.2490    19.8200     9.0820 ca         1 OIS      -0.119000
     21 C14         15.1450    19.2700     9.7210 ca         1 OIS      -0.118000
     22 C15         13.9070    19.9000     9.6160 ca         1 OIS      -0.119000
     23 C16         13.7810    21.0710     8.8770 ca         1 OIS      -0.098500
     24 C17         10.1530    23.9300     1.9960 c3         1 OIS      -0.091100
     25 C18         10.9950    22.0310     3.4340 c3         1 OIS      -0.091100
     26 C19         15.8490    19.8160     4.0610 c3         1 OIS       0.054700
     27 C20         17.9180    19.9980     5.3800 c          1 OIS       0.600000
     28 C21         15.2790    18.8060     3.0580 c3         1 OIS      -0.057700
     29 C22         14.3120    19.5090     2.1030 c3         1 OIS      -0.087600
     30 C23         16.4010    18.1190     2.2800 c3         1 OIS      -0.087600
     31 N5          18.5470    19.2990     6.3700 n          1 OIS      -0.417800
     32 O5          18.2380    21.1110     4.9580 o          1 OIS      -0.610000
     33 C31         17.9880    17.9610     6.5100 c5         1 OIS       0.088000
     34 C32          8.6750    25.8140     6.9820 ca         1 OIS      -0.022500
     35 C34          8.2040    27.0740     7.3020 ca         1 OIS      -0.103500
     36 C35          8.9460    27.9180     8.1400 ca         1 OIS      -0.087900
     37 C36         10.1650    27.4660     8.6540 ca         1 OIS      -0.103500
     38 C37         10.6450    26.2040     8.3380 ca         1 OIS      -0.022500
     39 C38          9.8980    25.3830     7.4990 ca         1 OIS      -0.300500
     40 C40          8.4940    29.2600     8.5070 ce         1 OIS       0.412800
     41 C10         19.8540    19.6670     6.8790 c3         1 OIS       0.097700
     42 C24         19.8210    20.0160     8.3380 cc         1 OIS       0.261300
     43 C9          19.7810    21.2790     8.8450 cd         1 OIS      -0.235000
     44 C28         19.6810    19.4830    10.4950 cd         1 OIS       0.442700
     45 S2          19.6650    21.2220    10.5590 ss         1 OIS      -0.043400
     46 O7           7.1730    31.0290     8.5490 oh         1 OIS      -0.518000
     47 C25         19.5550    18.6480    11.7240 c3         1 OIS      -0.127400
     48 H1          15.8840    22.1500     4.9200 hn         1 OIS       0.334500
     49 H2          13.1980    22.0670     6.1420 h1         1 OIS       0.095700
     50 H41         15.7130    23.3590     7.2790 hc         1 OIS       0.061700
     51 H42         14.0930    23.5930     7.9300 hc         1 OIS       0.061700
     52 H51         12.6590    25.6510     5.1540 h1         1 OIS       0.055700
     53 H52         12.8870    24.9990     6.7690 h1         1 OIS       0.055700
     54 H6          16.3580    17.2120     5.2500 h1         1 OIS       0.066200
     55 HO1         14.9890    25.2770     4.4450 ho         1 OIS       0.441000
     56 H3          13.6150    23.5440     4.1940 h1         1 OIS       0.049700
     57 H7          12.0670    23.8180     2.9260 hc         1 OIS       0.041700
     58 H81          9.5600    24.0860     4.6140 h1         1 OIS       0.050700
     59 H82         10.6510    25.4080     4.1920 h1         1 OIS       0.050700
     60 H12         16.9830    21.4090     7.8430 ha         1 OIS       0.125500
     61 H13         17.2130    19.3390     9.1580 ha         1 OIS       0.110500
     62 H14         15.2470    18.3590    10.2980 ha         1 OIS       0.104000
     63 H15         13.0400    19.4800    10.1110 ha         1 OIS       0.110500
     64 H16         12.8170    21.5570     8.7940 ha         1 OIS       0.125500
     65 H171        10.4680    23.4100     1.0890 hc         1 OIS       0.041200
     66 H172         9.1100    23.6640     2.1920 hc         1 OIS       0.041200
     67 H173        10.1990    25.0040     1.8050 hc         1 OIS       0.041200
     68 H181        11.3320    21.4810     2.5540 hc         1 OIS       0.041200
     69 H182        11.6290    21.7480     4.2730 hc         1 OIS       0.041200
     70 H183         9.9730    21.7130     3.6630 hc         1 OIS       0.041200
     71 H19         16.3590    20.6000     3.5000 h1         1 OIS       0.082700
     72 H21         14.7200    18.0510     3.6170 hc         1 OIS       0.068700
     73 H221        13.8900    18.7930     1.3960 hc         1 OIS       0.037200
     74 H222        13.4860    19.9810     2.6360 hc         1 OIS       0.037200
     75 H223        14.8330    20.2810     1.5300 hc         1 OIS       0.037200
     76 H231        15.9810    17.4180     1.5560 hc         1 OIS       0.037200
     77 H232        16.9950    18.8550     1.7320 hc         1 OIS       0.037200
     78 H233        17.0730    17.5660     2.9360 hc         1 OIS       0.037200
     79 H5          17.8860    17.6780     7.5550 h1         1 OIS       0.057700
     80 H31         18.6280    17.2270     6.0080 h1         1 OIS       0.057700
     81 H32          8.0940    25.1640     6.3440 ha         1 OIS       0.137000
     82 H34          7.2550    27.4090     6.9060 ha         1 OIS       0.129000
     83 H36         10.7390    28.1090     9.3100 ha         1 OIS       0.129000
     84 H37         11.5830    25.8580     8.7480 ha         1 OIS       0.137000
     85 H402         9.1310    29.8480     9.1670 h4         1 OIS       0.014800
     86 H101        20.5500    18.8390     6.7130 h1         1 OIS       0.068700
     87 H102        20.1950    20.5260     6.3040 h1         1 OIS       0.068700
     88 H9          19.8040    22.2130     8.3090 h4         1 OIS       0.168000
     89 HO7          6.3230    31.2760     8.1610 ho         1 OIS       0.471000
     90 H251        19.9820    19.1480    12.5930 hc         1 OIS       0.058700
     91 H252        18.5010    18.4450    11.9360 hc         1 OIS       0.058700
     92 H253        20.0610    17.6950    11.5730 hc         1 OIS       0.058700
     93 H4          15.8360    18.3260     6.5310 h1         1 OIS       0.066200
     94 O4          13.7620    19.8530     5.3090 o          1 OIS      -0.606100
@<TRIPOS>BOND
     1     1    40 2   
     2     1    46 1   
     3     2     3 1   
     4     2    13 1   
     5     2    48 1   
     6     3     6 1   
     7     3    14 1   
     8     3    49 1   
     9     4     8 1   
    10     4    16 1   
    11     4    17 1   
    12     5    42 1   
    13     5    44 2   
    14     6    18 1   
    15     6    50 1   
    16     6    51 1   
    17     7     9 1   
    18     7    26 1   
    19     7    27 1   
    20     8    14 1   
    21     8    52 1   
    22     8    53 1   
    23     9    33 1   
    24     9    54 1   
    25     9    93 1   
    26    10    14 1   
    27    10    55 1   
    28    11    17 2   
    29    12    17 2   
    30    13    26 1   
    31    13    94 2   
    32    14    56 1   
    33    15    16 1   
    34    15    24 1   
    35    15    25 1   
    36    15    57 1   
    37    16    58 1   
    38    16    59 1   
    39    17    39 1   
    40    18    19 ar  
    41    18    23 ar  
    42    19    20 ar  
    43    19    60 1   
    44    20    21 ar  
    45    20    61 1   
    46    21    22 ar  
    47    21    62 1   
    48    22    23 ar  
    49    22    63 1   
    50    23    64 1   
    51    24    65 1   
    52    24    66 1   
    53    24    67 1   
    54    25    68 1   
    55    25    69 1   
    56    25    70 1   
    57    26    28 1   
    58    26    71 1   
    59    27    31 1   
    60    27    32 2   
    61    28    29 1   
    62    28    30 1   
    63    28    72 1   
    64    29    73 1   
    65    29    74 1   
    66    29    75 1   
    67    30    76 1   
    68    30    77 1   
    69    30    78 1   
    70    31    33 1   
    71    31    41 1   
    72    33    79 1   
    73    33    80 1   
    74    34    35 ar  
    75    34    39 ar  
    76    34    81 1   
    77    35    36 ar  
    78    35    82 1   
    79    36    37 ar  
    80    36    40 1   
    81    37    38 ar  
    82    37    83 1   
    83    38    39 ar  
    84    38    84 1   
    85    40    85 1   
    86    41    42 1   
    87    41    86 1   
    88    41    87 1   
    89    42    43 2   
    90    43    45 1   
    91    43    88 1   
    92    44    45 1   
    93    44    47 1   
    94    46    89 1   
    95    47    90 1   
    96    47    91 1   
    97    47    92 1   
@<TRIPOS>SUBSTRUCTURE
     1 OIS         1 TEMP              0 ****  ****    0 ROOT
