@<TRIPOS>MOLECULE
OIT
   48    50     1     0     0
SMALL
abcg2


@<TRIPOS>ATOM
      1 C13        -21.9430     1.1570    -2.5740 ca         1 OIT      -0.053000
      2 C02        -17.1630    -4.4140     5.7130 c3         1 OIT       0.149800
      3 C05        -17.6730    -4.7080     1.8620 c3         1 OIT      -0.070400
      4 C06        -18.1180    -3.7640     0.7510 c3         1 OIT      -0.093400
      5 C07        -19.5810    -3.3580     0.8650 c3         1 OIT       0.100000
      6 C09        -20.9650    -1.6440    -0.2340 c          1 OIT       0.612700
      7 C03        -17.1570    -5.0350     4.3250 c3         1 OIT      -0.078400
      8 C04        -17.6850    -4.0880     3.2550 c3         1 OIT      -0.078400
      9 C11        -21.2420    -0.9290    -1.5210 ca         1 OIT      -0.127600
     10 C12        -21.6670     0.4070    -1.4450 ca         1 OIT      -0.079000
     11 C14        -21.8070     0.5250    -3.8050 ca         1 OIT       0.074400
     12 C16        -21.7430    -0.0490    -5.8330 cc         1 OIT       0.592200
     13 C17        -21.7890    -0.1110    -7.2870 ca         1 OIT      -0.104900
     14 C18        -21.5940    -1.3140    -7.9600 ca         1 OIT      -0.063000
     15 C19        -21.6460    -1.3200    -9.3430 ca         1 OIT       0.113500
     16 C21        -21.8810    -0.1640   -10.0700 ca         1 OIT      -0.077000
     17 C22        -22.0690     1.0210    -9.3730 ca         1 OIT       0.113500
     18 C24        -22.0300     1.0650    -7.9930 ca         1 OIT      -0.063000
     19 C26        -21.4140    -0.8070    -3.8570 ca         1 OIT       0.019100
     20 C27        -21.1170    -1.5720    -2.7510 ca         1 OIT      -0.073000
     21 N01        -16.6480    -5.3450     6.7070 n8         1 OIT      -0.995200
     22 N08        -19.9770    -2.5500    -0.2710 ns         1 OIT      -0.504900
     23 N15        -22.0050     0.9720    -5.0940 nd         1 OIT      -0.564100
     24 O10        -21.6030    -1.3850     0.7770 o          1 OIT      -0.596100
     25 O25        -21.3850    -1.1640    -5.1630 os         1 OIT      -0.274700
     26 CL20       -21.4120    -2.8070   -10.1870 cl         1 OIT      -0.179500
     27 CL23       -22.3540     2.4760   -10.2570 cl         1 OIT      -0.179500
     28 H1         -22.2520     2.1910    -2.5010 ha         1 OIT       0.141000
     29 H2         -16.5200    -3.5290     5.7090 h1         1 OIT       0.027200
     30 H3         -18.1780    -4.0520     5.9350 h1         1 OIT       0.027200
     31 H4         -18.3040    -5.6030     1.8540 hc         1 OIT       0.043200
     32 H5         -16.6590    -5.0510     1.6380 hc         1 OIT       0.043200
     33 H6         -17.9600    -4.2550    -0.2140 hc         1 OIT       0.043200
     34 H7         -17.4910    -2.8670     0.7510 hc         1 OIT       0.043200
     35 H8         -19.7510    -2.7820     1.7750 h1         1 OIT       0.055700
     36 H9         -20.2080    -4.2530     0.9310 h1         1 OIT       0.055700
     37 H10        -17.7650    -5.9460     4.3330 hc         1 OIT       0.045700
     38 H11        -16.1380    -5.3450     4.0750 hc         1 OIT       0.045700
     39 H12        -17.0810    -3.1740     3.2470 hc         1 OIT       0.040700
     40 H13        -18.7000    -3.7780     3.5230 hc         1 OIT       0.040700
     41 H14        -21.7690     0.8670    -0.4710 ha         1 OIT       0.142000
     42 H15        -21.4080    -2.2340    -7.4240 ha         1 OIT       0.153000
     43 H16        -21.9160    -0.1850   -11.1510 ha         1 OIT       0.148000
     44 H17        -22.1780     1.9980    -7.4660 ha         1 OIT       0.153000
     45 H18        -20.8310    -2.6120    -2.8450 ha         1 OIT       0.135000
     46 H19        -16.6280    -4.8940     7.6130 hn         1 OIT       0.391500
     47 H20        -17.2970    -6.1170     6.8040 hn         1 OIT       0.391500
     48 H22        -19.4520    -2.6670    -1.1230 hn         1 OIT       0.314500
@<TRIPOS>BOND
     1     1    10 ar  
     2     1    11 ar  
     3     1    28 1   
     4     2     7 1   
     5     2    21 1   
     6     2    29 1   
     7     2    30 1   
     8     3     4 1   
     9     3     8 1   
    10     3    31 1   
    11     3    32 1   
    12     4     5 1   
    13     4    33 1   
    14     4    34 1   
    15     5    22 1   
    16     5    35 1   
    17     5    36 1   
    18     6     9 1   
    19     6    22 1   
    20     6    24 2   
    21     7     8 1   
    22     7    37 1   
    23     7    38 1   
    24     8    39 1   
    25     8    40 1   
    26     9    10 ar  
    27     9    20 ar  
    28    10    41 1   
    29    11    19 ar  
    30    11    23 1   
    31    12    13 1   
    32    12    23 2   
    33    12    25 1   
    34    13    14 ar  
    35    13    18 ar  
    36    14    15 ar  
    37    14    42 1   
    38    15    16 ar  
    39    15    26 1   
    40    16    17 ar  
    41    16    43 1   
    42    17    18 ar  
    43    17    27 1   
    44    18    44 1   
    45    19    20 ar  
    46    19    25 1   
    47    20    45 1   
    48    21    46 1   
    49    21    47 1   
    50    22    48 1   
@<TRIPOS>SUBSTRUCTURE
     1 OIT         1 TEMP              0 ****  ****    0 ROOT
