@<TRIPOS>MOLECULE
OIT
   48    50     1     0     0
SMALL
No Charge or Current Charge


@<TRIPOS>ATOM
      1 C13        -21.4030     1.3360    -2.7100 ca         1 OIT      -0.053000
      2 C02        -17.8100    -4.7630     5.9250 c3         1 OIT       0.149800
      3 C05        -17.2860    -4.3060     2.0310 c3         1 OIT      -0.070400
      4 C06        -17.8750    -3.3750     0.9450 c3         1 OIT      -0.093400
      5 C07        -19.3750    -3.6070     0.6590 c3         1 OIT       0.100000
      6 C09        -20.1820    -1.4330    -0.3340 c          1 OIT       0.612700
      7 C03        -17.2170    -4.9810     4.5180 c3         1 OIT      -0.078400
      8 C04        -17.8780    -4.0890     3.4430 c3         1 OIT      -0.078400
      9 C11        -20.6300    -0.7340    -1.6030 ca         1 OIT      -0.127600
     10 C12        -20.9810     0.6460    -1.5520 ca         1 OIT      -0.079000
     11 C14        -21.4690     0.6300    -3.9150 ca         1 OIT       0.074400
     12 C16        -21.7110    -0.0240    -5.9030 cc         1 OIT       0.592200
     13 C17        -21.9840    -0.1280    -7.3450 ca         1 OIT      -0.104900
     14 C18        -21.8060    -1.3510    -8.0330 ca         1 OIT      -0.063000
     15 C19        -22.0690    -1.4400    -9.4110 ca         1 OIT       0.113500
     16 C21        -22.5120    -0.3150   -10.1220 ca         1 OIT      -0.077000
     17 C22        -22.6920     0.9030    -9.4500 ca         1 OIT       0.113500
     18 C24        -22.4310     0.9990    -8.0730 ca         1 OIT      -0.063000
     19 C26        -21.1350    -0.6890    -3.9720 ca         1 OIT       0.019100
     20 C27        -20.7120    -1.4120    -2.8510 ca         1 OIT      -0.073000
     21 N01        -17.1580    -5.6240     6.9280 n8         1 OIT      -0.995200
     22 N08        -19.8600    -2.7700    -0.4430 ns         1 OIT      -0.504900
     23 N15        -21.8470     1.0890    -5.1570 nd         1 OIT      -0.564100
     24 O10        -20.1100    -0.8480     0.7380 o          1 OIT      -0.596100
     25 O25        -21.2730    -1.1630    -5.2340 os         1 OIT      -0.274700
     26 Cl20       -21.8420    -2.9700   -10.2490 cl         1 OIT      -0.179500
     27 Cl23       -23.2480     2.3170   -10.3370 cl         1 OIT      -0.179500
     28 H1         -21.6700     2.3890    -2.6680 ha         1 OIT       0.141000
     29 H2         -17.6780    -3.7130     6.2240 h1         1 OIT       0.027200
     30 H3         -18.8860    -4.9880     5.9130 h1         1 OIT       0.027200
     31 H4         -17.4350    -5.3510     1.7290 hc         1 OIT       0.043200
     32 H5         -16.2020    -4.1440     2.0730 hc         1 OIT       0.043200
     33 H6         -17.3130    -3.5280     0.0150 hc         1 OIT       0.043200
     34 H7         -17.7150    -2.3300     1.2400 hc         1 OIT       0.043200
     35 H8         -19.9680    -3.3910     1.5570 h1         1 OIT       0.055700
     36 H9         -19.5370    -4.6600     0.3920 h1         1 OIT       0.055700
     37 H10        -17.3360    -6.0340     4.2340 hc         1 OIT       0.045700
     38 H11        -16.1400    -4.7730     4.5450 hc         1 OIT       0.045700
     39 H12        -17.7590    -3.0360     3.7270 hc         1 OIT       0.040700
     40 H13        -18.9550    -4.2970     3.4270 hc         1 OIT       0.040700
     41 H14        -20.9270     1.1890    -0.6110 ha         1 OIT       0.142000
     42 H15        -21.4630    -2.2400    -7.5090 ha         1 OIT       0.153000
     43 H16        -22.7150    -0.3870   -11.1860 ha         1 OIT       0.148000
     44 H17        -22.5780     1.9560    -7.5760 ha         1 OIT       0.153000
     45 H18        -20.4590    -2.4630    -2.9640 ha         1 OIT       0.135000
     46 H19        -17.6240    -5.4940     7.8350 hn         1 OIT       0.391500
     47 H20        -17.3500    -6.6070     6.6990 hn         1 OIT       0.391500
     48 H22        -19.9480    -3.1900    -1.3580 hn         1 OIT       0.314500
@<TRIPOS>BOND
     1     1    10 ar  
     2     1    11 ar  
     3     1    28 1   
     4     2     7 1   
     5     2    21 1   
     6     2    29 1   
     7     2    30 1   
     8     3     4 1   
     9     3     8 1   
    10     3    31 1   
    11     3    32 1   
    12     4     5 1   
    13     4    33 1   
    14     4    34 1   
    15     5    22 1   
    16     5    35 1   
    17     5    36 1   
    18     6     9 1   
    19     6    22 1   
    20     6    24 2   
    21     7     8 1   
    22     7    37 1   
    23     7    38 1   
    24     8    39 1   
    25     8    40 1   
    26     9    10 ar  
    27     9    20 ar  
    28    10    41 1   
    29    11    19 ar  
    30    11    23 1   
    31    12    13 1   
    32    12    23 2   
    33    12    25 1   
    34    13    14 ar  
    35    13    18 ar  
    36    14    15 ar  
    37    14    42 1   
    38    15    16 ar  
    39    15    26 1   
    40    16    17 ar  
    41    16    43 1   
    42    17    18 ar  
    43    17    27 1   
    44    18    44 1   
    45    19    20 ar  
    46    19    25 1   
    47    20    45 1   
    48    21    46 1   
    49    21    47 1   
    50    22    48 1   
@<TRIPOS>SUBSTRUCTURE
     1 OIT         1 TEMP              0 ****  ****    0 ROOT
