@<TRIPOS>MOLECULE
OIW
   20    20     1     0     0
SMALL
abcg2


@<TRIPOS>ATOM
      1 C1          23.1630     9.3680    22.4620 c2         1 OIW      -0.233200
      2 C2          22.5230     8.4280    21.4800 c6         1 OIW       0.160000
      3 C3          23.3730     8.3090    20.2110 c6         1 OIW       0.187300
      4 C4          24.8270     8.0450    20.5780 c6         1 OIW       0.187300
      5 C5          25.3730     9.2630    21.3160 c6         1 OIW       0.160000
      6 C6          24.4440     9.7160    22.4040 c2         1 OIW      -0.233200
      7 O7          25.5620     7.7950    19.4060 oh         1 OIW      -0.690000
      8 O8          26.6480     8.9140    21.8200 oh         1 OIW      -0.706500
      9 O9          22.9240     7.2890    19.3600 oh         1 OIW      -0.690000
     10 O1          22.3640     7.1370    22.0390 oh         1 OIW      -0.706500
     11 H1          22.5390     9.7430    23.2670 ha         1 OIW       0.177500
     12 H21         21.5420     8.8340    21.1910 h1         1 OIW       0.040200
     13 H3          23.3230     9.2880    19.7070 h1         1 OIW       0.055200
     14 H4          24.8730     7.1810    21.2600 h1         1 OIW       0.055200
     15 H5          25.4680    10.0780    20.5820 h1         1 OIW       0.040200
     16 H6          24.8580    10.3890    23.1480 ha         1 OIW       0.177500
     17 HO7         26.4840     7.6830    19.6620 ho         1 OIW       0.506500
     18 HO8         27.1570     9.7200    21.9540 ho         1 OIW       0.504000
     19 HO9         22.0240     7.4970    19.0880 ho         1 OIW       0.506500
     20 H7          21.8080     7.2140    22.8200 ho         1 OIW       0.504000
@<TRIPOS>BOND
     1     1     2 1   
     2     1     6 2   
     3     1    11 1   
     4     2     3 1   
     5     2    10 1   
     6     2    12 1   
     7     3     4 1   
     8     3     9 1   
     9     3    13 1   
    10     4     5 1   
    11     4     7 1   
    12     4    14 1   
    13     5     6 1   
    14     5     8 1   
    15     5    15 1   
    16     6    16 1   
    17     7    17 1   
    18     8    18 1   
    19     9    19 1   
    20    10    20 1   
@<TRIPOS>SUBSTRUCTURE
     1 OIW         1 TEMP              0 ****  ****    0 ROOT
