@<TRIPOS>MOLECULE
OIW
   20    20     1     0     0
SMALL
No Charge or Current Charge


@<TRIPOS>ATOM
      1 C1          23.1720     9.3550    22.4320 c2         1 OIW      -0.233200
      2 C2          22.4650     8.5840    21.3270 c6         1 OIW       0.160000
      3 C3          23.3540     8.3860    20.0540 c6         1 OIW       0.187300
      4 C4          24.8270     8.0440    20.4670 c6         1 OIW       0.187300
      5 C5          25.4200     9.2210    21.3040 c6         1 OIW       0.160000
      6 C6          24.4910     9.6250    22.4350 c2         1 OIW      -0.233200
      7 O7          25.6850     7.7900    19.3320 oh         1 OIW      -0.690000
      8 O8          26.7040     8.8650    21.8310 oh         1 OIW      -0.706500
      9 O9          22.7500     7.3390    19.2710 oh         1 OIW      -0.690000
     10 O1          22.0900     7.3000    21.8520 oh         1 OIW      -0.706500
     11 H1          22.5410     9.6960    23.2560 ha         1 OIW       0.177500
     12 H21         21.5630     9.1420    21.0330 h1         1 OIW       0.040200
     13 H3          23.3660     9.3280    19.4850 h1         1 OIW       0.055200
     14 H4          24.7980     7.1540    21.1140 h1         1 OIW       0.055200
     15 H5          25.5240    10.0900    20.6360 h1         1 OIW       0.040200
     16 H6          24.9360    10.1870    23.2580 ha         1 OIW       0.177500
     17 HO7         26.5980     7.8470    19.6990 ho         1 OIW       0.506500
     18 HO8         27.0570     9.6640    22.2860 ho         1 OIW       0.504000
     19 HO9         22.2950     6.8040    19.9700 ho         1 OIW       0.506500
     20 H7          21.6400     7.4690    22.7130 ho         1 OIW       0.504000
@<TRIPOS>BOND
     1     1     2 1   
     2     1     6 2   
     3     1    11 1   
     4     2     3 1   
     5     2    10 1   
     6     2    12 1   
     7     3     4 1   
     8     3     9 1   
     9     3    13 1   
    10     4     5 1   
    11     4     7 1   
    12     4    14 1   
    13     5     6 1   
    14     5     8 1   
    15     5    15 1   
    16     6    16 1   
    17     7    17 1   
    18     8    18 1   
    19     9    19 1   
    20    10    20 1   
@<TRIPOS>SUBSTRUCTURE
     1 OIW         1 TEMP              0 ****  ****    0 ROOT
