@<TRIPOS>MOLECULE
OIX
   42    44     1     0     0
SMALL
abcg2


@<TRIPOS>ATOM
      1 N1           7.3370     2.2680    19.3940 nb         1 OIX      -0.667000
      2 C4          13.8000    -2.3050    21.5590 ca         1 OIX      -0.108000
      3 C5          12.4550    -2.3110    21.9370 ca         1 OIX      -0.165000
      4 C6          11.8540    -1.1510    22.4090 ca         1 OIX       0.111100
      5 C7           9.7230    -2.2130    22.6750 c3         1 OIX       0.133600
      6 C8           8.3340    -1.8250    23.1420 c3         1 OIX       0.107000
      7 C10          6.6580     0.1880    20.4160 ca         1 OIX      -0.180600
      8 C13          5.0660     1.5020    19.1430 ca         1 OIX      -0.106000
      9 C15          2.7650     0.8260    18.8720 ca         1 OIX      -0.109000
     10 C17          4.2780    -0.5750    20.1500 ca         1 OIX      -0.095000
     11 O2           6.8250    -2.1660    20.7890 o          1 OIX      -0.607100
     12 C9           7.0730    -1.0270    21.1890 c          1 OIX       0.612700
     13 C18          5.3350     0.3350    19.9120 ca         1 OIX       0.024000
     14 C16          3.0260    -0.3290    19.6410 ca         1 OIX      -0.090000
     15 C14          3.7690     1.7270    18.6270 ca         1 OIX      -0.084000
     16 C12          6.1210     2.4210    18.9240 ca         1 OIX       0.376900
     17 C11          7.5900     1.1600    20.1360 ca         1 OIX       0.346900
     18 N            7.7410    -0.7780    22.3310 ns         1 OIX      -0.495900
     19 O1          10.5550    -1.0610    22.8060 os         1 OIX      -0.345100
     20 C1          12.6090     0.0390    22.5020 ca         1 OIX       0.108100
     21 O           11.9420     1.1300    22.9680 os         1 OIX      -0.336100
     22 C           12.6600     2.3570    23.0760 c3         1 OIX       0.146900
     23 C3          14.5410    -1.1410    21.6520 ca         1 OIX      -0.108000
     24 C2          13.9460     0.0320    22.1240 ca         1 OIX      -0.165000
     25 H2          11.8840    -3.2250    21.8640 ha         1 OIX       0.119000
     26 H3          10.1050    -3.0310    23.2940 h1         1 OIX       0.048700
     27 H4           9.7020    -2.5400    21.6320 h1         1 OIX       0.048700
     28 H5           8.3740    -1.4730    24.1730 h1         1 OIX       0.068700
     29 H6           7.6940    -2.7060    23.1030 h1         1 OIX       0.068700
     30 H7           1.7700     0.9960    18.4820 ha         1 OIX       0.118000
     31 H8           4.4650    -1.4660    20.7310 ha         1 OIX       0.138000
     32 H9           2.2240    -1.0300    19.8320 ha         1 OIX       0.118000
     33 H10          3.5850     2.6220    18.0440 ha         1 OIX       0.117000
     34 H11          5.9230     3.3120    18.3340 h4         1 OIX       0.021100
     35 H12          8.6060     1.0600    20.5010 h4         1 OIX       0.029100
     36 H13          7.9070     0.1800    22.5950 hn         1 OIX       0.329500
     37 H14         11.9470     3.0850    23.4540 h1         1 OIX       0.041033
     38 H15         13.4960     2.2640    23.7740 h1         1 OIX       0.041033
     39 H16         13.0340     2.6810    22.1020 h1         1 OIX       0.041033
     40 H17         15.5840    -1.1270    21.3630 ha         1 OIX       0.115000
     41 H18         14.5320     0.9360    22.1920 ha         1 OIX       0.118000
     42 H1          14.2530    -3.2180    21.1940 ha         1 OIX       0.115000
@<TRIPOS>BOND
     1     1    16 ar  
     2     1    17 ar  
     3     2     3 ar  
     4     2    23 ar  
     5     2    42 1   
     6     3     4 ar  
     7     3    25 1   
     8     4    19 1   
     9     4    20 ar  
    10     5     6 1   
    11     5    19 1   
    12     5    26 1   
    13     5    27 1   
    14     6    18 1   
    15     6    28 1   
    16     6    29 1   
    17     7    12 1   
    18     7    13 ar  
    19     7    17 ar  
    20     8    13 ar  
    21     8    15 ar  
    22     8    16 ar  
    23     9    14 ar  
    24     9    15 ar  
    25     9    30 1   
    26    10    13 ar  
    27    10    14 ar  
    28    10    31 1   
    29    11    12 2   
    30    12    18 1   
    31    14    32 1   
    32    15    33 1   
    33    16    34 1   
    34    17    35 1   
    35    18    36 1   
    36    20    21 1   
    37    20    24 ar  
    38    21    22 1   
    39    22    37 1   
    40    22    38 1   
    41    22    39 1   
    42    23    24 ar  
    43    23    40 1   
    44    24    41 1   
@<TRIPOS>SUBSTRUCTURE
     1 OIX         1 TEMP              0 ****  ****    0 ROOT
