@<TRIPOS>MOLECULE
OIX
   42    44     1     0     0
SMALL
No Charge or Current Charge


@<TRIPOS>ATOM
      1 N1           7.1110     2.6340    20.4310 nb         1 OIX      -0.667000
      2 C4          13.6320    -2.4210    21.3740 ca         1 OIX      -0.108000
      3 C5          12.3340    -2.4080    21.9100 ca         1 OIX      -0.165000
      4 C6          11.7570    -1.1930    22.3460 ca         1 OIX       0.111100
      5 C7           9.6280    -2.3020    22.9650 c3         1 OIX       0.133600
      6 C8           8.2730    -1.8600    23.5630 c3         1 OIX       0.107000
      7 C10          6.5910     0.2910    20.8540 ca         1 OIX      -0.180600
      8 C13          5.2000     1.6040    19.3560 ca         1 OIX      -0.106000
      9 C15          3.2430     0.6610    18.2540 ca         1 OIX      -0.109000
     10 C17          4.5790    -0.7130    19.7570 ca         1 OIX      -0.095000
     11 O2           6.9460    -2.0770    21.0530 o          1 OIX      -0.607100
     12 C9           7.0310    -0.9660    21.5560 c          1 OIX       0.612700
     13 C18          5.4630     0.3670    19.9900 ca         1 OIX       0.024000
     14 C16          3.4810    -0.5650    18.8920 ca         1 OIX      -0.090000
     15 C14          4.0990     1.7480    18.4880 ca         1 OIX      -0.084000
     16 C12          6.0460     2.6990    19.6060 ca         1 OIX       0.376900
     17 C11          7.3680     1.4530    21.0340 ca         1 OIX       0.346900
     18 N            7.6240    -0.7910    22.7880 ns         1 OIX      -0.495900
     19 O1          10.4790    -1.1420    22.8790 os         1 OIX      -0.345100
     20 C1          12.4950     0.0120    22.2390 ca         1 OIX       0.108100
     21 O           11.9080     1.1920    22.6700 os         1 OIX      -0.336100
     22 C           12.5780     2.4620    22.5910 c3         1 OIX       0.146900
     23 C3          14.3640    -1.2290    21.2690 ca         1 OIX      -0.108000
     24 C2          13.8020    -0.0150    21.6980 ca         1 OIX      -0.165000
     25 H2          11.7930    -3.3480    21.9810 ha         1 OIX       0.119000
     26 H3          10.0750    -3.0680    23.6110 h1         1 OIX       0.048700
     27 H4           9.4630    -2.7370    21.9710 h1         1 OIX       0.048700
     28 H5           8.4340    -1.5040    24.5890 h1         1 OIX       0.068700
     29 H6           7.6010    -2.7260    23.6130 h1         1 OIX       0.068700
     30 H7           2.3920     0.7720    17.5850 ha         1 OIX       0.118000
     31 H8           4.7120    -1.6730    20.2450 ha         1 OIX       0.138000
     32 H9           2.8100    -1.4040    18.7200 ha         1 OIX       0.118000
     33 H10          3.9040     2.7010    18.0000 ha         1 OIX       0.117000
     34 H11          5.8640     3.6640    19.1330 h4         1 OIX       0.021100
     35 H12          8.2550     1.4430    21.6660 h4         1 OIX       0.029100
     36 H13          7.6600     0.1520    23.1540 hn         1 OIX       0.329500
     37 H14         11.9320     3.2580    22.9830 h1         1 OIX       0.041033
     38 H15         13.5020     2.4540    23.1820 h1         1 OIX       0.041033
     39 H16         12.8260     2.7090    21.5510 h1         1 OIX       0.041033
     40 H17         15.3690    -1.2450    20.8530 ha         1 OIX       0.115000
     41 H18         14.3930     0.8910    21.6020 ha         1 OIX       0.118000
     42 H1          14.0730    -3.3590    21.0410 ha         1 OIX       0.115000
@<TRIPOS>BOND
     1     1    16 ar  
     2     1    17 ar  
     3     2     3 ar  
     4     2    23 ar  
     5     2    42 1   
     6     3     4 ar  
     7     3    25 1   
     8     4    19 1   
     9     4    20 ar  
    10     5     6 1   
    11     5    19 1   
    12     5    26 1   
    13     5    27 1   
    14     6    18 1   
    15     6    28 1   
    16     6    29 1   
    17     7    12 1   
    18     7    13 ar  
    19     7    17 ar  
    20     8    13 ar  
    21     8    15 ar  
    22     8    16 ar  
    23     9    14 ar  
    24     9    15 ar  
    25     9    30 1   
    26    10    13 ar  
    27    10    14 ar  
    28    10    31 1   
    29    11    12 2   
    30    12    18 1   
    31    14    32 1   
    32    15    33 1   
    33    16    34 1   
    34    17    35 1   
    35    18    36 1   
    36    20    21 1   
    37    20    24 ar  
    38    21    22 1   
    39    22    37 1   
    40    22    38 1   
    41    22    39 1   
    42    23    24 ar  
    43    23    40 1   
    44    24    41 1   
@<TRIPOS>SUBSTRUCTURE
     1 OIX         1 TEMP              0 ****  ****    0 ROOT
