@<TRIPOS>MOLECULE
OIZ
   19    19     1     0     0
SMALL
No Charge or Current Charge


@<TRIPOS>ATOM
      1 C2          15.2870    -1.8040    56.4420 c6         1 OIZ       0.167500
      2 C3          13.8400    -2.1690    56.7350 c2         1 OIZ      -0.238200
      3 C4          12.8110    -1.3270    56.5130 c2         1 OIZ      -0.209200
      4 C5          12.9830     0.0950    55.9800 c6         1 OIZ       0.173500
      5 C6          14.4200     0.3660    55.4340 c6         1 OIZ       0.179300
      6 C7          15.4730    -0.2570    56.3920 c6         1 OIZ       0.136300
      7 O1          16.1420    -2.3760    57.4390 oh         1 OIZ      -0.721000
      8 Cl1         11.7120     0.4160    54.6740 cl         1 OIZ      -0.269000
      9 O2          14.6820     1.7750    55.2900 oh         1 OIZ      -0.706000
     10 O3          16.8120     0.0810    55.9750 oh         1 OIZ      -0.668000
     11 H1          15.5430    -2.2110    55.4510 h1         1 OIZ       0.054700
     12 H2          13.6550    -3.1740    57.1210 ha         1 OIZ       0.184000
     13 H3          11.7850    -1.6320    56.7280 ha         1 OIZ       0.197000
     14 H4          12.7570     0.8120    56.7820 h1         1 OIZ       0.097700
     15 H5          14.5150    -0.1340    54.4580 h1         1 OIZ       0.054700
     16 H6          15.2890     0.1380    57.4030 h1         1 OIZ       0.059700
     17 H7          16.0510    -3.3550    57.3660 ho         1 OIZ       0.511000
     18 H8          15.6690     1.8350    55.3280 ho         1 OIZ       0.528000
     19 H9          17.3960    -0.5450    56.4640 ho         1 OIZ       0.466000
@<TRIPOS>BOND
     1     1     2 1   
     2     1     6 1   
     3     1     7 1   
     4     1    11 1   
     5     2     3 2   
     6     2    12 1   
     7     3     4 1   
     8     3    13 1   
     9     4     5 1   
    10     4     8 1   
    11     4    14 1   
    12     5     6 1   
    13     5     9 1   
    14     5    15 1   
    15     6    10 1   
    16     6    16 1   
    17     7    17 1   
    18     9    18 1   
    19    10    19 1   
@<TRIPOS>SUBSTRUCTURE
     1 OIZ         1 TEMP              0 ****  ****    0 ROOT
