@<TRIPOS>MOLECULE
OIZ
   19    19     1     0     0
SMALL
abcg2


@<TRIPOS>ATOM
      1 C2          15.2530    -1.8410    56.4470 c6         1 OIZ       0.167500
      2 C3          13.8040    -2.1670    56.6730 c2         1 OIZ      -0.238200
      3 C4          12.8140    -1.3040    56.4730 c2         1 OIZ      -0.209200
      4 C5          13.0510     0.1020    56.0340 c6         1 OIZ       0.173500
      5 C6          14.4450     0.3060    55.4750 c6         1 OIZ       0.179300
      6 C7          15.4580    -0.3320    56.4270 c6         1 OIZ       0.136300
      7 O1          16.0730    -2.3690    57.4680 oh         1 OIZ      -0.721000
      8 CL1         11.8280     0.5530    54.7710 cl         1 OIZ      -0.269000
      9 O2          14.6540     1.6810    55.3220 oh         1 OIZ      -0.706000
     10 O3          16.7360     0.0260    55.9650 oh         1 OIZ      -0.668000
     11 H1          15.5550    -2.2410    55.4670 h1         1 OIZ       0.054700
     12 H2          13.5720    -3.1710    57.0110 ha         1 OIZ       0.184000
     13 H3          11.7890    -1.5920    56.6720 ha         1 OIZ       0.197000
     14 H4          12.8690     0.7970    56.8570 h1         1 OIZ       0.097700
     15 H5          14.5090    -0.2190    54.5090 h1         1 OIZ       0.054700
     16 H6          15.2820     0.0530    57.4440 h1         1 OIZ       0.059700
     17 H7          16.1800    -3.3140    57.3200 ho         1 OIZ       0.511000
     18 H8          15.5600     1.8160    55.0250 ho         1 OIZ       0.528000
     19 H9          17.3890    -0.2490    56.6170 ho         1 OIZ       0.466000
@<TRIPOS>BOND
     1     1     2 1   
     2     1     6 1   
     3     1     7 1   
     4     1    11 1   
     5     2     3 2   
     6     2    12 1   
     7     3     4 1   
     8     3    13 1   
     9     4     5 1   
    10     4     8 1   
    11     4    14 1   
    12     5     6 1   
    13     5     9 1   
    14     5    15 1   
    15     6    10 1   
    16     6    16 1   
    17     7    17 1   
    18     9    18 1   
    19    10    19 1   
@<TRIPOS>SUBSTRUCTURE
     1 OIZ         1 TEMP              0 ****  ****    0 ROOT
