@<TRIPOS>MOLECULE
OJ0
   49    50     1     0     0
SMALL
bcc


@<TRIPOS>ATOM
      1 C10        123.1590   122.2860   104.7390 c          1 OJ0       0.633100
      2 C13        125.0090   121.0730   103.6910 ca         1 OJ0       0.047600
      3 C15        125.6840   120.3680   104.6930 ca         1 OJ0      -0.069800
      4 C17        126.3800   119.2170   104.3320 ca         1 OJ0      -0.126000
      5 C21        126.4190   118.7890   103.0140 ca         1 OJ0      -0.124000
      6 O01        122.6320   121.2740   105.1720 o          1 OJ0      -0.586100
      7 N02        121.2120   123.8790   104.9510 n3         1 OJ0      -0.771600
      8 N03        124.3030   122.2560   104.0120 ns         1 OJ0      -0.500100
      9 C04        122.6390   123.6990   105.0230 c6         1 OJ0       0.150500
     10 C05        123.1640   124.1440   106.3970 c6         1 OJ0      -0.069400
     11 C06        120.4060   123.3130   106.0140 c6         1 OJ0       0.201800
     12 C07        122.3910   123.5090   107.5460 c6         1 OJ0      -0.075400
     13 C08        120.9010   123.7780   107.3760 c6         1 OJ0      -0.076400
     14 C09        120.6230   123.8610   103.6300 c3         1 OJ0       0.199800
     15 C11        120.4060   122.5030   102.9560 c3         1 OJ0      -0.114400
     16 C12        119.6340   122.6170   101.6440 c3         1 OJ0      -0.073400
     17 C14        120.3870   123.3590   100.5450 c3         1 OJ0      -0.091100
     18 C16        125.0420   120.6580   102.3560 ca         1 OJ0      -0.069800
     19 C18        125.7600   119.5110   102.0320 ca         1 OJ0      -0.126000
     20 C19        125.6860   120.8300   106.1190 c3         1 OJ0      -0.046300
     21 H1         126.9090   118.6590   105.0950 ha         1 OJ0       0.130500
     22 H2         123.2530   121.5200   101.5170 hc         1 OJ0       0.043867
     23 H3         124.7040   122.4480   101.1930 hc         1 OJ0       0.043867
     24 H4         124.4160   120.9460   100.3250 hc         1 OJ0       0.043867
     25 H5         126.9710   117.8960   102.7520 ha         1 OJ0       0.131000
     26 H7         124.6110   123.1140   103.5770 hn         1 OJ0       0.316500
     27 H8         123.0790   124.3720   104.2770 h1         1 OJ0       0.050700
     28 H9         124.2320   123.9270   106.4740 hc         1 OJ0       0.047200
     29 H10        123.0580   125.2310   106.4530 hc         1 OJ0       0.047200
     30 H11        119.3800   123.6660   105.8670 h1         1 OJ0       0.040200
     31 H12        120.3590   122.2170   105.9950 h1         1 OJ0       0.040200
     32 H13        122.5760   122.4330   107.5860 hc         1 OJ0       0.047700
     33 H14        122.7440   123.9200   108.4940 hc         1 OJ0       0.047700
     34 H15        120.7180   124.8520   107.4760 hc         1 OJ0       0.042700
     35 H16        120.3250   123.2810   108.1600 hc         1 OJ0       0.042700
     36 H17        121.2410   124.4930   102.9860 h1         1 OJ0       0.043700
     37 H18        119.6490   124.3620   103.6990 h1         1 OJ0       0.043700
     38 H19        119.8590   121.8430   103.6350 hc         1 OJ0       0.048700
     39 H20        121.3650   122.0170   102.7570 hc         1 OJ0       0.048700
     40 H21        118.6740   123.1110   101.8280 hc         1 OJ0       0.038700
     41 H22        119.3920   121.6120   101.2900 hc         1 OJ0       0.038700
     42 H23        119.8300   123.3460    99.6080 hc         1 OJ0       0.029700
     43 H24        120.5660   124.4040   100.8000 hc         1 OJ0       0.029700
     44 H25        121.3590   122.8960   100.3560 hc         1 OJ0       0.029700
     45 H26        125.7950   119.1810   101.0010 ha         1 OJ0       0.130500
     46 H27        124.7460   120.5850   106.6170 hc         1 OJ0       0.043867
     47 H28        126.4890   120.3530   106.6780 hc         1 OJ0       0.043867
     48 H29        125.8160   121.9100   106.1940 hc         1 OJ0       0.043867
     49 C20        124.3170   121.4320   101.2940 c3         1 OJ0      -0.046300
@<TRIPOS>BOND
     1     1     6 2   
     2     1     8 1   
     3     1     9 1   
     4     2     3 ar  
     5     2     8 1   
     6     2    18 ar  
     7     3     4 ar  
     8     3    20 1   
     9     4     5 ar  
    10     4    21 1   
    11     5    19 ar  
    12     5    25 1   
    13     7     9 1   
    14     7    11 1   
    15     7    14 1   
    16     8    26 1   
    17     9    10 1   
    18     9    27 1   
    19    10    12 1   
    20    10    28 1   
    21    10    29 1   
    22    11    13 1   
    23    11    30 1   
    24    11    31 1   
    25    12    13 1   
    26    12    32 1   
    27    12    33 1   
    28    13    34 1   
    29    13    35 1   
    30    14    15 1   
    31    14    36 1   
    32    14    37 1   
    33    15    16 1   
    34    15    38 1   
    35    15    39 1   
    36    16    17 1   
    37    16    40 1   
    38    16    41 1   
    39    17    42 1   
    40    17    43 1   
    41    17    44 1   
    42    18    19 ar  
    43    18    49 1   
    44    19    45 1   
    45    20    46 1   
    46    20    47 1   
    47    20    48 1   
    48    22    49 1   
    49    23    49 1   
    50    24    49 1   
@<TRIPOS>SUBSTRUCTURE
     1 OJ0         1 TEMP              0 ****  ****    0 ROOT
