@<TRIPOS>MOLECULE
OJ0
   49    50     1     0     0
SMALL
No Charge or Current Charge


@<TRIPOS>ATOM
      1 C10        123.2700   122.8600   103.5340 c          1 OJ0       0.566100
      2 C13        124.9220   120.9630   103.8970 ca         1 OJ0      -0.045000
      3 C15        124.8120   119.8520   104.7670 ca         1 OJ0      -0.069800
      4 C17        125.4790   118.6530   104.4540 ca         1 OJ0      -0.108000
      5 C21        126.2550   118.5550   103.2900 ca         1 OJ0      -0.106000
      6 O01        122.8420   122.4580   102.4550 o          1 OJ0      -0.586100
      7 N02        121.3180   124.2270   104.7060 n3         1 OJ0      -0.771600
      8 N03        124.2410   122.1610   104.2360 ns         1 OJ0      -0.174000
      9 C04        122.7480   124.2020   104.1860 c6         1 OJ0       0.150500
     10 C05        123.6950   124.7940   105.2840 c6         1 OJ0      -0.069400
     11 C06        121.1360   123.5540   106.0250 c6         1 OJ0       0.201800
     12 C07        123.5210   124.1460   106.6830 c6         1 OJ0      -0.075400
     13 C08        122.0400   124.1820   107.1080 c6         1 OJ0      -0.076400
     14 C09        120.2480   123.9430   103.7080 c3         1 OJ0       0.199800
     15 C11        119.7830   122.4630   103.5930 c3         1 OJ0      -0.114400
     16 C12        118.7810   122.2030   102.4440 c3         1 OJ0      -0.073400
     17 C14        119.3770   122.3650   101.0300 c3         1 OJ0      -0.091100
     18 C16        125.7260   120.8720   102.7310 ca         1 OJ0      -0.069800
     19 C18        126.3800   119.6610   102.4360 ca         1 OJ0      -0.108000
     20 C19        123.9680   119.9280   106.0370 c3         1 OJ0      -0.046300
     21 H1         125.3950   117.7910   105.1120 ha         1 OJ0       0.112500
     22 H2         125.1430   122.1220   101.0460 hc         1 OJ0       0.043867
     23 H3         125.9740   123.0110   102.3390 hc         1 OJ0       0.043867
     24 H4         126.8900   121.9730   101.2520 hc         1 OJ0       0.043867
     25 H5         126.7670   117.6250   103.0540 ha         1 OJ0       0.113000
     26 H7         124.4910   122.5490   105.1350 hn         1 OJ0       0.150000
     27 H8         122.8060   124.9080   103.3450 h1         1 OJ0       0.050700
     28 H9         124.7440   124.7330   104.9620 hc         1 OJ0       0.047200
     29 H10        123.4820   125.8680   105.3750 hc         1 OJ0       0.047200
     30 H11        120.0900   123.6400   106.3560 h1         1 OJ0       0.040200
     31 H12        121.3660   122.4810   105.9440 h1         1 OJ0       0.040200
     32 H13        123.8800   123.1090   106.6880 hc         1 OJ0       0.047700
     33 H14        124.1320   124.6840   107.4200 hc         1 OJ0       0.047700
     34 H15        121.7290   125.2210   107.2850 hc         1 OJ0       0.042700
     35 H16        121.9080   123.6480   108.0580 hc         1 OJ0       0.042700
     36 H17        120.5750   124.2960   102.7210 h1         1 OJ0       0.043700
     37 H18        119.3620   124.5390   103.9660 h1         1 OJ0       0.043700
     38 H19        119.2930   122.1760   104.5310 hc         1 OJ0       0.048700
     39 H20        120.6390   121.7920   103.4800 hc         1 OJ0       0.048700
     40 H21        117.9180   122.8730   102.5520 hc         1 OJ0       0.038700
     41 H22        118.3960   121.1800   102.5420 hc         1 OJ0       0.038700
     42 H23        118.6350   122.0890   100.2720 hc         1 OJ0       0.029700
     43 H24        119.6800   123.4010   100.8420 hc         1 OJ0       0.029700
     44 H25        120.2530   121.7170   100.9020 hc         1 OJ0       0.029700
     45 H26        126.9970   119.5760   101.5440 ha         1 OJ0       0.112500
     46 H27        122.9460   120.2600   105.8160 hc         1 OJ0       0.043867
     47 H28        123.8920   118.9540   106.5350 hc         1 OJ0       0.043867
     48 H29        124.4030   120.6310   106.7570 hc         1 OJ0       0.043867
     49 C20        125.9410   122.0600   101.7940 c3         1 OJ0      -0.046300
@<TRIPOS>BOND
     1     1     6 2   
     2     1     8 1   
     3     1     9 1   
     4     2     3 ar  
     5     2     8 1   
     6     2    18 ar  
     7     3     4 ar  
     8     3    20 1   
     9     4     5 ar  
    10     4    21 1   
    11     5    19 ar  
    12     5    25 1   
    13     7     9 1   
    14     7    11 1   
    15     7    14 1   
    16     8    26 1   
    17     9    10 1   
    18     9    27 1   
    19    10    12 1   
    20    10    28 1   
    21    10    29 1   
    22    11    13 1   
    23    11    30 1   
    24    11    31 1   
    25    12    13 1   
    26    12    32 1   
    27    12    33 1   
    28    13    34 1   
    29    13    35 1   
    30    14    15 1   
    31    14    36 1   
    32    14    37 1   
    33    15    16 1   
    34    15    38 1   
    35    15    39 1   
    36    16    17 1   
    37    16    40 1   
    38    16    41 1   
    39    17    42 1   
    40    17    43 1   
    41    17    44 1   
    42    18    19 ar  
    43    18    49 1   
    44    19    45 1   
    45    20    46 1   
    46    20    47 1   
    47    20    48 1   
    48    22    49 1   
    49    23    49 1   
    50    24    49 1   
@<TRIPOS>SUBSTRUCTURE
     1 OJ0         1 TEMP              0 ****  ****    0 ROOT
