@<TRIPOS>MOLECULE
OJ1
   59    63     1     0     0
SMALL
abcg2


@<TRIPOS>ATOM
      1 C01          9.0460     0.4560     0.2440 c3         1 OJ1      -0.077100
      2 C02          7.6960     0.2800    -0.4290 c3         1 OJ1      -0.152400
      3 C03          6.5730     0.9970     0.3000 c          1 OJ1       0.607100
      4 O04          6.7880     1.6130     1.3350 o          1 OJ1      -0.603100
      5 N05          5.3350     0.9310    -0.2440 n          1 OJ1      -0.419800
      6 C06          4.9690     0.1960    -1.4380 c6         1 OJ1       0.093000
      7 C07          3.9220    -0.8620    -1.1210 c6         1 OJ1       0.173800
      8 N08          2.7710    -0.2190    -0.5080 nh         1 OJ1      -0.756300
      9 C09          3.1490     0.4830     0.7190 c6         1 OJ1       0.173800
     10 C10          4.1930     1.5390     0.4110 c6         1 OJ1       0.093000
     11 C11          1.5870    -0.9330    -0.4810 ca         1 OJ1       0.539900
     12 N12          1.6360    -2.2270    -0.6380 nb         1 OJ1      -0.392000
     13 N13          0.5250    -2.9690    -0.6430 nb         1 OJ1      -0.300000
     14 C14         -0.6450    -2.4420    -0.4170 cp         1 OJ1       0.357500
     15 C15         -1.7830    -3.3850    -0.3900 cp         1 OJ1      -0.149500
     16 C16         -2.9050    -3.1900    -1.1950 ca         1 OJ1      -0.082500
     17 C17         -3.9470    -4.1070    -1.1820 ca         1 OJ1      -0.115500
     18 C18         -3.8790    -5.2260    -0.3630 ca         1 OJ1      -0.099000
     19 C19         -2.7610    -5.4300     0.4360 ca         1 OJ1      -0.115500
     20 C20         -1.7160    -4.5190     0.4180 ca         1 OJ1      -0.082500
     21 C21         -0.8110    -1.0340    -0.2240 ca         1 OJ1      -0.048000
     22 C22         -2.0470    -0.4130     0.0310 ca         1 OJ1      -0.063000
     23 C23         -2.1600     0.9540     0.0990 cp         1 OJ1       0.008000
     24 C24         -1.0010     1.7310    -0.1190 ca         1 OJ1       0.145000
     25 CL25        -1.1360     3.4490    -0.1570 cl         1 OJ1      -0.183000
     26 C26          0.2260     1.1580    -0.3210 ca         1 OJ1      -0.081000
     27 C27          0.3410    -0.2410    -0.3280 ca         1 OJ1      -0.060000
     28 C28         -3.4690     1.5830     0.3640 cp         1 OJ1      -0.136000
     29 C29         -3.7200     2.2440     1.5710 ca         1 OJ1       0.192100
     30 O30         -2.7200     2.2700     2.4630 oh         1 OJ1      -0.517100
     31 C31         -4.9620     2.8260     1.8080 ca         1 OJ1      -0.227000
     32 C32         -5.9540     2.7470     0.8430 ca         1 OJ1      -0.031000
     33 C33         -5.7360     2.0940    -0.3610 ca         1 OJ1      -0.193000
     34 C34         -4.4930     1.5280    -0.5660 ca         1 OJ1       0.229000
     35 F35         -4.2530     0.8960    -1.7240 f          1 OJ1      -0.170000
     36 H1           9.0440     0.0670     1.2610 hc         1 OJ1       0.042033
     37 H2           9.8080    -0.0840    -0.3160 hc         1 OJ1       0.042033
     38 H3           9.3450     1.5030     0.2860 hc         1 OJ1       0.042033
     39 H4           7.7480     0.6390    -1.4600 hc         1 OJ1       0.056200
     40 H5           7.4550    -0.7850    -0.4980 hc         1 OJ1       0.056200
     41 H6           4.5620     0.8940    -2.1760 h1         1 OJ1       0.062450
     42 H7           5.8340    -0.2830    -1.8870 h1         1 OJ1       0.062450
     43 H8           3.6150    -1.3460    -2.0470 h1         1 OJ1       0.057450
     44 H9           4.3570    -1.6310    -0.4700 h1         1 OJ1       0.057450
     45 H10          2.2830     0.9520     1.1810 h1         1 OJ1       0.057450
     46 H11          3.5580    -0.2300     1.4480 h1         1 OJ1       0.057450
     47 H12          4.5110     2.0230     1.3300 h1         1 OJ1       0.062450
     48 H13          3.7630     2.3040    -0.2440 h1         1 OJ1       0.062450
     49 H14         -2.9600    -2.3290    -1.8500 ha         1 OJ1       0.122500
     50 H15         -4.8080    -3.9490    -1.8170 ha         1 OJ1       0.115500
     51 H16         -4.6940    -5.9380    -0.3480 ha         1 OJ1       0.113000
     52 H17         -2.7030    -6.3020     1.0750 ha         1 OJ1       0.115500
     53 H18         -0.8470    -4.6800     1.0430 ha         1 OJ1       0.122500
     54 H19         -2.9290    -1.0180     0.1910 ha         1 OJ1       0.138000
     55 H20          1.0920     1.7790    -0.5020 ha         1 OJ1       0.146000
     56 H21         -2.9860     2.7510     3.2550 ho         1 OJ1       0.471000
     57 H22         -5.1530     3.3370     2.7440 ha         1 OJ1       0.122000
     58 H23         -6.9160     3.2020     1.0350 ha         1 OJ1       0.120000
     59 H24         -6.5040     2.0270    -1.1180 ha         1 OJ1       0.139000
@<TRIPOS>BOND
     1     1     2 1   
     2     1    36 1   
     3     1    37 1   
     4     1    38 1   
     5     2     3 1   
     6     2    39 1   
     7     2    40 1   
     8     3     4 2   
     9     3     5 1   
    10     5     6 1   
    11     5    10 1   
    12     6     7 1   
    13     6    41 1   
    14     6    42 1   
    15     7     8 1   
    16     7    43 1   
    17     7    44 1   
    18     8     9 1   
    19     8    11 1   
    20     9    10 1   
    21     9    45 1   
    22     9    46 1   
    23    10    47 1   
    24    10    48 1   
    25    11    12 ar  
    26    11    27 ar  
    27    12    13 ar  
    28    13    14 ar  
    29    14    15 1   
    30    14    21 ar  
    31    15    16 ar  
    32    15    20 ar  
    33    16    17 ar  
    34    16    49 1   
    35    17    18 ar  
    36    17    50 1   
    37    18    19 ar  
    38    18    51 1   
    39    19    20 ar  
    40    19    52 1   
    41    20    53 1   
    42    21    22 ar  
    43    21    27 ar  
    44    22    23 ar  
    45    22    54 1   
    46    23    24 ar  
    47    23    28 1   
    48    24    25 1   
    49    24    26 ar  
    50    26    27 ar  
    51    26    55 1   
    52    28    29 ar  
    53    28    34 ar  
    54    29    30 1   
    55    29    31 ar  
    56    30    56 1   
    57    31    32 ar  
    58    31    57 1   
    59    32    33 ar  
    60    32    58 1   
    61    33    34 ar  
    62    33    59 1   
    63    34    35 1   
@<TRIPOS>SUBSTRUCTURE
     1 OJ1         1 TEMP              0 ****  ****    0 ROOT
