@<TRIPOS>MOLECULE
OJ1
   59    63     1     0     0
SMALL
No Charge or Current Charge


@<TRIPOS>ATOM
      1 C01          9.3220     0.3080    -0.0990 c3         1 OJ1      -0.077100
      2 C02          7.8790     0.3260    -0.6540 c3         1 OJ1      -0.152400
      3 C03          6.7880     0.8250     0.3170 c          1 OJ1       0.607100
      4 O04          7.0570     1.0750     1.4860 o          1 OJ1      -0.603100
      5 N05          5.4770     1.0280    -0.1750 n          1 OJ1      -0.419800
      6 C06          4.9660     0.4730    -1.4630 c6         1 OJ1       0.093000
      7 C07          3.9190    -0.6500    -1.2220 c6         1 OJ1       0.173800
      8 N08          2.8190    -0.1930    -0.3190 nh         1 OJ1      -0.756300
      9 C09          3.3220     0.4000     0.9570 c6         1 OJ1       0.173800
     10 C10          4.3700     1.5160     0.6940 c6         1 OJ1       0.093000
     11 C11          1.5900    -0.8890    -0.2970 ca         1 OJ1       0.539900
     12 N12          1.6700    -2.2390    -0.3690 nb         1 OJ1      -0.392000
     13 N13          0.5580    -3.0020    -0.3370 nb         1 OJ1      -0.300000
     14 C14         -0.6800    -2.4570    -0.2330 cp         1 OJ1       0.357500
     15 C15         -1.8220    -3.4280    -0.2470 cp         1 OJ1      -0.149500
     16 C16         -2.8950    -3.2900    -1.1660 ca         1 OJ1      -0.082500
     17 C17         -3.9560    -4.2110    -1.1830 ca         1 OJ1      -0.115500
     18 C18         -3.9620    -5.2950    -0.2900 ca         1 OJ1      -0.099000
     19 C19         -2.9020    -5.4600     0.6160 ca         1 OJ1      -0.115500
     20 C20         -1.8400    -4.5390     0.6340 ca         1 OJ1      -0.082500
     21 C21         -0.8320    -1.0400    -0.1340 ca         1 OJ1      -0.048000
     22 C22         -2.0890    -0.4180     0.0280 ca         1 OJ1      -0.063000
     23 C23         -2.2120     0.9880     0.1060 cp         1 OJ1       0.008000
     24 C24         -1.0380     1.7770     0.0100 ca         1 OJ1       0.145000
     25 Cl25        -1.1140     3.5390     0.0350 cl         1 OJ1      -0.183000
     26 C26          0.2190     1.1700    -0.1280 ca         1 OJ1      -0.081000
     27 C27          0.3350    -0.2360    -0.1820 ca         1 OJ1      -0.060000
     28 C28         -3.5620     1.6040     0.2680 cp         1 OJ1      -0.136000
     29 C29         -3.9550     2.2150     1.4850 ca         1 OJ1       0.192100
     30 O30         -3.1080     2.2430     2.5540 oh         1 OJ1      -0.517100
     31 C31         -5.2300     2.7880     1.6190 ca         1 OJ1      -0.227000
     32 C32         -6.1380     2.7600     0.5470 ca         1 OJ1      -0.031000
     33 C33         -5.7660     2.1510    -0.6610 ca         1 OJ1      -0.193000
     34 C34         -4.4930     1.5780    -0.7960 ca         1 OJ1       0.229000
     35 F35         -4.1620     1.0010    -1.9730 f          1 OJ1      -0.170000
     36 H1           9.3960    -0.3510     0.7740 hc         1 OJ1       0.042033
     37 H2          10.0210    -0.0560    -0.8620 hc         1 OJ1       0.042033
     38 H3           9.6350     1.3160     0.1980 hc         1 OJ1       0.042033
     39 H4           7.8130     0.9140    -1.5760 hc         1 OJ1       0.056200
     40 H5           7.5840    -0.6700    -1.0050 hc         1 OJ1       0.056200
     41 H6           4.4870     1.2850    -2.0280 h1         1 OJ1       0.062450
     42 H7           5.7710     0.0810    -2.0960 h1         1 OJ1       0.062450
     43 H8           3.5100    -0.9600    -2.1950 h1         1 OJ1       0.057450
     44 H9           4.4280    -1.5220    -0.7850 h1         1 OJ1       0.057450
     45 H10          2.4930     0.8260     1.5430 h1         1 OJ1       0.057450
     46 H11          3.7860    -0.3830     1.5740 h1         1 OJ1       0.057450
     47 H12          4.7520     1.8890     1.6540 h1         1 OJ1       0.062450
     48 H13          3.8740     2.3610     0.1960 h1         1 OJ1       0.062450
     49 H14         -2.8990    -2.4650    -1.8760 ha         1 OJ1       0.122500
     50 H15         -4.7720    -4.0870    -1.8920 ha         1 OJ1       0.115500
     51 H16         -4.7830    -6.0080    -0.3040 ha         1 OJ1       0.113000
     52 H17         -2.9010    -6.3030     1.3040 ha         1 OJ1       0.115500
     53 H18         -1.0250    -4.6820     1.3410 ha         1 OJ1       0.122500
     54 H19         -2.9930    -1.0140     0.1140 ha         1 OJ1       0.138000
     55 H20          1.1000     1.8020    -0.2030 ha         1 OJ1       0.146000
     56 H21         -3.5600     2.7040     3.2910 ho         1 OJ1       0.471000
     57 H22         -5.5290     3.2560     2.5540 ha         1 OJ1       0.122000
     58 H23         -7.1260     3.2050     0.6540 ha         1 OJ1       0.120000
     59 H24         -6.4630     2.1220    -1.4950 ha         1 OJ1       0.139000
@<TRIPOS>BOND
     1     1     2 1   
     2     1    36 1   
     3     1    37 1   
     4     1    38 1   
     5     2     3 1   
     6     2    39 1   
     7     2    40 1   
     8     3     4 2   
     9     3     5 1   
    10     5     6 1   
    11     5    10 1   
    12     6     7 1   
    13     6    41 1   
    14     6    42 1   
    15     7     8 1   
    16     7    43 1   
    17     7    44 1   
    18     8     9 1   
    19     8    11 1   
    20     9    10 1   
    21     9    45 1   
    22     9    46 1   
    23    10    47 1   
    24    10    48 1   
    25    11    12 ar  
    26    11    27 ar  
    27    12    13 ar  
    28    13    14 ar  
    29    14    15 1   
    30    14    21 ar  
    31    15    16 ar  
    32    15    20 ar  
    33    16    17 ar  
    34    16    49 1   
    35    17    18 ar  
    36    17    50 1   
    37    18    19 ar  
    38    18    51 1   
    39    19    20 ar  
    40    19    52 1   
    41    20    53 1   
    42    21    22 ar  
    43    21    27 ar  
    44    22    23 ar  
    45    22    54 1   
    46    23    24 ar  
    47    23    28 1   
    48    24    25 1   
    49    24    26 ar  
    50    26    27 ar  
    51    26    55 1   
    52    28    29 ar  
    53    28    34 ar  
    54    29    30 1   
    55    29    31 ar  
    56    30    56 1   
    57    31    32 ar  
    58    31    57 1   
    59    32    33 ar  
    60    32    58 1   
    61    33    34 ar  
    62    33    59 1   
    63    34    35 1   
@<TRIPOS>SUBSTRUCTURE
     1 OJ1         1 TEMP              0 ****  ****    0 ROOT
