@<TRIPOS>MOLECULE
OJ2
   39    40     1     0     0
SMALL
No Charge or Current Charge


@<TRIPOS>ATOM
      1 FAC         23.1480   -10.7660    11.3640 f          1 OJ2      -0.108667
      2 CAX         23.0950   -11.7520    12.2890 c3         1 OJ2       0.515000
      3 FAD         23.9420   -11.4290    13.2930 f          1 OJ2      -0.108667
      4 FAE         23.5880   -12.8660    11.7030 f          1 OJ2      -0.108667
      5 OAR         21.7520   -11.9800    12.7630 os         1 OJ2      -0.404100
      6 CAU         20.9810   -11.0280    13.4060 ca         1 OJ2       0.121100
      7 CAM         21.4250    -9.7120    13.6750 ca         1 OJ2      -0.132000
      8 CAJ         19.6920   -11.4170    13.8020 ca         1 OJ2      -0.132000
      9 CAH         18.8470   -10.5120    14.4610 ca         1 OJ2      -0.071000
     10 CAI         19.2910    -9.2070    14.7270 ca         1 OJ2      -0.168000
     11 CAT         20.5780    -8.7930    14.3370 ca         1 OJ2       0.010000
     12 NAP         20.9500    -7.4550    14.6460 ns         1 OJ2      -0.163000
     13 CAS         22.0920    -6.7140    14.3770 c          1 OJ2       0.666100
     14 OAA         23.0580    -7.1350    13.7530 o          1 OJ2      -0.600100
     15 NAQ         21.9930    -5.4280    14.8900 ns         1 OJ2      -0.180000
     16 CAW         22.9000    -4.3280    14.9030 ca         1 OJ2      -0.020000
     17 CAL         24.2710    -4.4790    14.5930 ca         1 OJ2      -0.104000
     18 CAG         25.1380    -3.3750    14.6210 ca         1 OJ2      -0.092000
     19 CAF         24.6490    -2.1070    14.9610 ca         1 OJ2      -0.118000
     20 CAK         23.2930    -1.9430    15.2800 ca         1 OJ2      -0.091000
     21 CAV         22.4120    -3.0440    15.2590 ca         1 OJ2      -0.112300
     22 CAO         20.9400    -2.8100    15.6100 c3         1 OJ2      -0.032100
     23 CAN         20.0500    -2.6900    14.3550 c3         1 OJ2       0.160600
     24 OAB         18.6850    -2.4900    14.7420 oh         1 OJ2      -0.668000
     25 H1          22.4180    -9.4080    13.3760 ha         1 OJ2       0.171000
     26 H2          19.3480   -12.4280    13.5970 ha         1 OJ2       0.138000
     27 H3          17.8490   -10.8210    14.7660 ha         1 OJ2       0.122000
     28 H4          18.6270    -8.5140    15.2380 ha         1 OJ2       0.114000
     29 H5          20.2420    -6.9500    15.1630 hn         1 OJ2       0.149000
     30 H6          21.1130    -5.2330    15.3470 hn         1 OJ2       0.153000
     31 H7          24.6900    -5.4480    14.3410 ha         1 OJ2       0.132000
     32 H8          26.1920    -3.5050    14.3810 ha         1 OJ2       0.119000
     33 H9          25.3210    -1.2510    14.9820 ha         1 OJ2       0.117000
     34 H10         22.9260    -0.9540    15.5440 ha         1 OJ2       0.115000
     35 H11         20.8340    -1.8920    16.2010 hc         1 OJ2       0.054200
     36 H12         20.5620    -3.6160    16.2500 hc         1 OJ2       0.054200
     37 H13         20.1440    -3.6030    13.7520 h1         1 OJ2       0.026700
     38 H14         20.4020    -1.8470    13.7450 h1         1 OJ2       0.026700
     39 H15         18.1630    -2.3930    13.9130 ho         1 OJ2       0.447000
@<TRIPOS>BOND
     1     1     2 1   
     2     2     3 1   
     3     2     4 1   
     4     2     5 1   
     5     5     6 1   
     6     6     7 ar  
     7     6     8 ar  
     8     7    11 ar  
     9     7    25 1   
    10     8     9 ar  
    11     8    26 1   
    12     9    10 ar  
    13     9    27 1   
    14    10    11 ar  
    15    10    28 1   
    16    11    12 1   
    17    12    13 1   
    18    12    29 1   
    19    13    14 2   
    20    13    15 1   
    21    15    16 1   
    22    15    30 1   
    23    16    17 ar  
    24    16    21 ar  
    25    17    18 ar  
    26    17    31 1   
    27    18    19 ar  
    28    18    32 1   
    29    19    20 ar  
    30    19    33 1   
    31    20    21 ar  
    32    20    34 1   
    33    21    22 1   
    34    22    23 1   
    35    22    35 1   
    36    22    36 1   
    37    23    24 1   
    38    23    37 1   
    39    23    38 1   
    40    24    39 1   
@<TRIPOS>SUBSTRUCTURE
     1 OJ2         1 TEMP              0 ****  ****    0 ROOT
