@<TRIPOS>MOLECULE
OJ2
   39    40     1     0     0
SMALL
bcc


@<TRIPOS>ATOM
      1 FAC         23.6700   -11.1170    12.6300 f          1 OJ2      -0.229967
      2 CAX         22.6630   -11.7610    12.0360 c3         1 OJ2       0.855700
      3 FAD         22.4300   -12.8580    12.7600 f          1 OJ2      -0.229967
      4 FAE         23.0630   -12.1360    10.8310 f          1 OJ2      -0.229967
      5 OAR         21.5750   -10.9980    11.8830 os         1 OJ2      -0.380900
      6 CAU         20.9700   -10.4850    13.0290 ca         1 OJ2       0.121100
      7 CAM         21.3700    -9.2330    13.4630 ca         1 OJ2      -0.150000
      8 CAJ         19.9690   -11.2150    13.6400 ca         1 OJ2      -0.150000
      9 CAH         19.3500   -10.6500    14.7470 ca         1 OJ2      -0.089000
     10 CAI         19.7260    -9.4050    15.2130 ca         1 OJ2      -0.186000
     11 CAT         20.7370    -8.6770    14.5770 ca         1 OJ2       0.102600
     12 NAP         21.0450    -7.4330    15.1160 ns         1 OJ2      -0.489100
     13 CAS         21.9550    -6.5110    14.6690 c          1 OJ2       0.800100
     14 OAA         22.6730    -6.6770    13.6990 o          1 OJ2      -0.600100
     15 NAQ         21.9740    -5.3780    15.4320 ns         1 OJ2      -0.506100
     16 CAW         22.8430    -4.2940    15.2070 ca         1 OJ2       0.072600
     17 CAL         24.2100    -4.5120    15.0550 ca         1 OJ2      -0.122000
     18 CAG         25.0710    -3.4460    14.8520 ca         1 OJ2      -0.110000
     19 CAF         24.5750    -2.1500    14.8240 ca         1 OJ2      -0.136000
     20 CAK         23.2160    -1.9360    14.9980 ca         1 OJ2      -0.109000
     21 CAV         22.3280    -2.9930    15.1830 ca         1 OJ2      -0.112300
     22 CAO         20.8550    -2.7160    15.3120 c3         1 OJ2      -0.032100
     23 CAN         20.1280    -2.9610    13.9950 c3         1 OJ2       0.137400
     24 OAB         18.7580    -2.6860    14.1830 oh         1 OJ2      -0.605800
     25 H1          22.1430    -8.7000    12.9350 ha         1 OJ2       0.189000
     26 H2          19.6700   -12.1830    13.2630 ha         1 OJ2       0.156000
     27 H3          18.5610   -11.1900    15.2520 ha         1 OJ2       0.140000
     28 H4          19.2250    -8.9860    16.0770 ha         1 OJ2       0.132000
     29 H5          20.5300    -7.2020    15.9510 hn         1 OJ2       0.315500
     30 H6          21.2510    -5.2490    16.1230 hn         1 OJ2       0.319500
     31 H7          24.6050    -5.5170    15.1100 ha         1 OJ2       0.150000
     32 H8          26.1310    -3.6280    14.7330 ha         1 OJ2       0.137000
     33 H9          25.2410    -1.3110    14.6750 ha         1 OJ2       0.135000
     34 H10         22.8270    -0.9240    14.9840 ha         1 OJ2       0.133000
     35 H11         20.7110    -1.6760    15.6110 hc         1 OJ2       0.054200
     36 H12         20.3980    -3.3250    16.0970 hc         1 OJ2       0.054200
     37 H13         20.2880    -3.9970    13.6730 h1         1 OJ2       0.026700
     38 H14         20.5690    -2.3170    13.2230 h1         1 OJ2       0.026700
     39 H15         18.2980    -2.8890    13.3640 ho         1 OJ2       0.408000
@<TRIPOS>BOND
     1     1     2 1   
     2     2     3 1   
     3     2     4 1   
     4     2     5 1   
     5     5     6 1   
     6     6     7 ar  
     7     6     8 ar  
     8     7    11 ar  
     9     7    25 1   
    10     8     9 ar  
    11     8    26 1   
    12     9    10 ar  
    13     9    27 1   
    14    10    11 ar  
    15    10    28 1   
    16    11    12 1   
    17    12    13 1   
    18    12    29 1   
    19    13    14 2   
    20    13    15 1   
    21    15    16 1   
    22    15    30 1   
    23    16    17 ar  
    24    16    21 ar  
    25    17    18 ar  
    26    17    31 1   
    27    18    19 ar  
    28    18    32 1   
    29    19    20 ar  
    30    19    33 1   
    31    20    21 ar  
    32    20    34 1   
    33    21    22 1   
    34    22    23 1   
    35    22    35 1   
    36    22    36 1   
    37    23    24 1   
    38    23    37 1   
    39    23    38 1   
    40    24    39 1   
@<TRIPOS>SUBSTRUCTURE
     1 OJ2         1 TEMP              0 ****  ****    0 ROOT
