@<TRIPOS>MOLECULE
OJ3
   57    60     1     0     0
SMALL
abcg2


@<TRIPOS>ATOM
      1 C13         -1.0180    -6.3860    -6.4660 ca         1 OJ3      -0.151000
      2 C17          0.2970   -11.1660    -0.9090 c3         1 OJ3      -0.113100
      3 C11         -2.1380   -10.4700    -6.7990 c5         1 OJ3       0.144300
      4 C20          1.7200   -15.2060     0.3370 c3         1 OJ3      -0.031100
      5 C10         -1.7210    -9.0360    -6.8420 ca         1 OJ3      -0.071300
      6 C12         -1.3370    -7.1730    -5.3670 ca         1 OJ3      -0.064000
      7 C14         -1.0580    -6.9510    -7.7300 ca         1 OJ3       0.176000
      8 C01         -2.9860   -12.0910    -3.4840 ca         1 OJ3      -0.195600
      9 C02         -4.1910   -12.5470    -2.9580 ca         1 OJ3      -0.019000
     10 C03         -4.2990   -12.8230    -1.6090 ca         1 OJ3      -0.171000
     11 C04         -3.1980   -12.6900    -0.7600 ca         1 OJ3       0.197100
     12 C05         -1.9640   -12.2560    -1.2780 ca         1 OJ3      -0.191300
     13 C06         -1.8930   -11.9650    -2.6340 ca         1 OJ3      -0.037000
     14 N01         -2.2880   -10.7190    -5.3680 n          1 OJ3      -0.417800
     15 O01         -3.2800   -12.6970    -5.7480 o          1 OJ3      -0.596100
     16 C08         -2.0580    -9.5280    -4.5460 c5         1 OJ3       0.162300
     17 C09         -1.6880    -8.4980    -5.5660 ca         1 OJ3      -0.125300
     18 C15         -1.4060    -8.2700    -7.9530 ca         1 OJ3      -0.133000
     19 C16         -0.7100   -12.2010    -0.4130 c3         1 OJ3       0.244300
     20 C18         -0.0960   -13.6130    -0.3880 c3         1 OJ3      -0.114400
     21 O02         -1.1550   -11.8060     0.8900 oh         1 OJ3      -0.685000
     22 C19          1.2010   -13.7680     0.3990 c3         1 OJ3      -0.076400
     23 C21          3.0580   -15.3470     1.0060 ca         1 OJ3      -0.083300
     24 O03         -3.3770   -13.0100     0.5290 oh         1 OJ3      -0.548100
     25 F01         -0.7440    -6.1810    -8.7850 f          1 OJ3      -0.177000
     26 C22          3.1580   -15.7010     2.3500 ca         1 OJ3      -0.107500
     27 C23          4.3960   -15.7810     2.9750 ca         1 OJ3      -0.108000
     28 C24          5.5560   -15.5060     2.2630 ca         1 OJ3      -0.110000
     29 C25          5.4690   -15.1520     0.9220 ca         1 OJ3      -0.108000
     30 C26          4.2300   -15.0740     0.3030 ca         1 OJ3      -0.107500
     31 H1          -0.7410    -5.3470    -6.3430 ha         1 OJ3       0.134000
     32 H2           1.0810   -11.0180    -0.1650 hc         1 OJ3       0.046367
     33 H3           0.7900   -11.4800    -1.8290 hc         1 OJ3       0.046367
     34 H4          -0.1830   -10.2030    -1.0870 hc         1 OJ3       0.046367
     35 H5          -3.0770   -10.6360    -7.3360 h1         1 OJ3       0.071200
     36 H6          -1.3910   -11.1350    -7.2420 h1         1 OJ3       0.071200
     37 H7           0.9920   -15.8750     0.8030 hc         1 OJ3       0.050700
     38 H8           1.7990   -15.5100    -0.7110 hc         1 OJ3       0.050700
     39 H9          -1.3090    -6.7470    -4.3730 ha         1 OJ3       0.122000
     40 H10         -5.0550   -12.6730    -3.5980 ha         1 OJ3       0.130000
     41 H11         -5.2420   -13.1570    -1.1940 ha         1 OJ3       0.133000
     42 H12         -0.9420   -11.6640    -3.0500 ha         1 OJ3       0.114000
     43 H13         -2.9550    -9.2510    -3.9860 h1         1 OJ3       0.058700
     44 H14         -1.2540    -9.6720    -3.8230 h1         1 OJ3       0.058700
     45 H15         -1.4280    -8.6770    -8.9560 ha         1 OJ3       0.139000
     46 H16         -0.8420   -14.3160    -0.0010 hc         1 OJ3       0.059700
     47 H17          0.0880   -13.9070    -1.4250 hc         1 OJ3       0.059700
     48 H18         -0.4320   -11.8940     1.5220 ho         1 OJ3       0.461000
     49 H19          1.9690   -13.1010     0.0000 hc         1 OJ3       0.040700
     50 H20          1.0640   -13.4930     1.4500 hc         1 OJ3       0.040700
     51 H21         -2.5920   -12.6900     1.0220 ho         1 OJ3       0.502000
     52 H22          2.2570   -15.9180     2.9120 ha         1 OJ3       0.110000
     53 H23          4.4540   -16.0590     4.0190 ha         1 OJ3       0.113000
     54 H24          6.5220   -15.5700     2.7480 ha         1 OJ3       0.113000
     55 H25          6.3680   -14.9400     0.3570 ha         1 OJ3       0.113000
     56 H26          4.1690   -14.8000    -0.7450 ha         1 OJ3       0.110000
     57 C07         -2.8690   -11.8630    -4.9520 c          1 OJ3       0.623700
@<TRIPOS>BOND
     1     1     6 ar  
     2     1     7 ar  
     3     1    31 1   
     4     2    19 1   
     5     2    32 1   
     6     2    33 1   
     7     2    34 1   
     8     3     5 1   
     9     3    14 1   
    10     3    35 1   
    11     3    36 1   
    12     4    22 1   
    13     4    23 1   
    14     4    37 1   
    15     4    38 1   
    16     5    17 ar  
    17     5    18 ar  
    18     6    17 ar  
    19     6    39 1   
    20     7    18 ar  
    21     7    25 1   
    22     8     9 ar  
    23     8    13 ar  
    24     8    57 1   
    25     9    10 ar  
    26     9    40 1   
    27    10    11 ar  
    28    10    41 1   
    29    11    12 ar  
    30    11    24 1   
    31    12    13 ar  
    32    12    19 1   
    33    13    42 1   
    34    14    16 1   
    35    14    57 1   
    36    15    57 2   
    37    16    17 1   
    38    16    43 1   
    39    16    44 1   
    40    18    45 1   
    41    19    20 1   
    42    19    21 1   
    43    20    22 1   
    44    20    46 1   
    45    20    47 1   
    46    21    48 1   
    47    22    49 1   
    48    22    50 1   
    49    23    26 ar  
    50    23    30 ar  
    51    24    51 1   
    52    26    27 ar  
    53    26    52 1   
    54    27    28 ar  
    55    27    53 1   
    56    28    29 ar  
    57    28    54 1   
    58    29    30 ar  
    59    29    55 1   
    60    30    56 1   
@<TRIPOS>SUBSTRUCTURE
     1 OJ3         1 TEMP              0 ****  ****    0 ROOT
