@<TRIPOS>MOLECULE
OJ3
   57    60     1     0     0
SMALL
No Charge or Current Charge


@<TRIPOS>ATOM
      1 C13         -0.5490    -6.6890    -6.5020 ca         1 OJ3      -0.151000
      2 C17         -0.2200   -10.9540    -0.4490 c3         1 OJ3      -0.113100
      3 C11         -1.9370   -10.7430    -6.7260 c5         1 OJ3       0.144300
      4 C20          1.9400   -14.9800    -0.1420 c3         1 OJ3      -0.031100
      5 C10         -1.4320    -9.3270    -6.7840 ca         1 OJ3      -0.071300
      6 C12         -0.9320    -7.4270    -5.3640 ca         1 OJ3      -0.064000
      7 C14         -0.6120    -7.2820    -7.7790 ca         1 OJ3       0.176000
      8 C01         -3.3090   -12.0580    -3.3180 ca         1 OJ3      -0.195600
      9 C02         -4.5720   -12.3630    -2.7800 ca         1 OJ3      -0.019000
     10 C03         -4.7080   -12.6160    -1.4080 ca         1 OJ3      -0.171000
     11 C04         -3.5920   -12.5760    -0.5630 ca         1 OJ3       0.197100
     12 C05         -2.2990   -12.2900    -1.0730 ca         1 OJ3      -0.191300
     13 C06         -2.1830   -12.0540    -2.4650 ca         1 OJ3      -0.037000
     14 N01         -2.1810   -10.9190    -5.2530 n          1 OJ3      -0.417800
     15 O01         -3.8840   -12.4150    -5.5980 o          1 OJ3      -0.596100
     16 C08         -1.8150    -9.6990    -4.4540 c5         1 OJ3       0.162300
     17 C09         -1.3730    -8.7500    -5.5330 ca         1 OJ3      -0.125300
     18 C15         -1.0560    -8.6080    -7.9300 ca         1 OJ3      -0.133000
     19 C16         -1.0060   -12.2680    -0.2110 c3         1 OJ3       0.244300
     20 C18         -0.1550   -13.5290    -0.5410 c3         1 OJ3      -0.114400
     21 O02         -1.3060   -12.3010     1.1870 oh         1 OJ3      -0.685000
     22 C19          1.1710   -13.7000     0.2490 c3         1 OJ3      -0.076400
     23 C21          3.2400   -15.1270     0.6380 ca         1 OJ3      -0.083300
     24 O03         -3.7790   -12.8290     0.7560 oh         1 OJ3      -0.548100
     25 F01         -0.2440    -6.5700    -8.8660 f          1 OJ3      -0.177000
     26 C22          3.2610   -15.8300     1.8590 ca         1 OJ3      -0.107500
     27 C23          4.4600   -15.9610     2.5810 ca         1 OJ3      -0.108000
     28 C24          5.6450   -15.3900     2.0870 ca         1 OJ3      -0.110000
     29 C25          5.6290   -14.6860     0.8710 ca         1 OJ3      -0.108000
     30 C26          4.4300   -14.5550     0.1490 ca         1 OJ3      -0.107500
     31 H1          -0.2050    -5.6630    -6.3980 ha         1 OJ3       0.134000
     32 H2           0.5880   -10.8300     0.2800 hc         1 OJ3       0.046367
     33 H3           0.2320   -10.9290    -1.4470 hc         1 OJ3       0.046367
     34 H4          -0.8870   -10.0880    -0.3560 hc         1 OJ3       0.046367
     35 H5          -2.8540   -10.8540    -7.3200 h1         1 OJ3       0.071200
     36 H6          -1.1860   -11.4530    -7.0980 h1         1 OJ3       0.071200
     37 H7           1.2970   -15.8530     0.0290 hc         1 OJ3       0.050700
     38 H8           2.1490   -14.9610    -1.2190 hc         1 OJ3       0.050700
     39 H9          -0.8860    -6.9790    -4.3730 ha         1 OJ3       0.122000
     40 H10         -5.4510   -12.3950    -3.4210 ha         1 OJ3       0.130000
     41 H11         -5.6880   -12.8440    -0.9980 ha         1 OJ3       0.133000
     42 H12         -1.1990   -11.9000    -2.8990 ha         1 OJ3       0.114000
     43 H13         -2.6740    -9.3000    -3.8970 h1         1 OJ3       0.058700
     44 H14         -0.9930    -9.8910    -3.7540 h1         1 OJ3       0.058700
     45 H15         -1.1050    -9.0630    -8.9160 ha         1 OJ3       0.139000
     46 H16         -0.7780   -14.4170    -0.3730 hc         1 OJ3       0.059700
     47 H17          0.0830   -13.5250    -1.6110 hc         1 OJ3       0.059700
     48 H18         -0.4490   -12.1980     1.6570 ho         1 OJ3       0.461000
     49 H19          1.8240   -12.8370     0.0710 hc         1 OJ3       0.040700
     50 H20          0.9650   -13.7330     1.3260 hc         1 OJ3       0.040700
     51 H21         -2.8750   -12.6800     1.1500 ho         1 OJ3       0.502000
     52 H22          2.3470   -16.2730     2.2500 ha         1 OJ3       0.110000
     53 H23          4.4700   -16.5050     3.5230 ha         1 OJ3       0.113000
     54 H24          6.5730   -15.4910     2.6460 ha         1 OJ3       0.113000
     55 H25          6.5460   -14.2420     0.4880 ha         1 OJ3       0.113000
     56 H26          4.4260   -14.0060    -0.7910 ha         1 OJ3       0.110000
     57 C07         -3.1820   -11.8030    -4.8030 c          1 OJ3       0.623700
@<TRIPOS>BOND
     1     1     6 ar  
     2     1     7 ar  
     3     1    31 1   
     4     2    19 1   
     5     2    32 1   
     6     2    33 1   
     7     2    34 1   
     8     3     5 1   
     9     3    14 1   
    10     3    35 1   
    11     3    36 1   
    12     4    22 1   
    13     4    23 1   
    14     4    37 1   
    15     4    38 1   
    16     5    17 ar  
    17     5    18 ar  
    18     6    17 ar  
    19     6    39 1   
    20     7    18 ar  
    21     7    25 1   
    22     8     9 ar  
    23     8    13 ar  
    24     8    57 1   
    25     9    10 ar  
    26     9    40 1   
    27    10    11 ar  
    28    10    41 1   
    29    11    12 ar  
    30    11    24 1   
    31    12    13 ar  
    32    12    19 1   
    33    13    42 1   
    34    14    16 1   
    35    14    57 1   
    36    15    57 2   
    37    16    17 1   
    38    16    43 1   
    39    16    44 1   
    40    18    45 1   
    41    19    20 1   
    42    19    21 1   
    43    20    22 1   
    44    20    46 1   
    45    20    47 1   
    46    21    48 1   
    47    22    49 1   
    48    22    50 1   
    49    23    26 ar  
    50    23    30 ar  
    51    24    51 1   
    52    26    27 ar  
    53    26    52 1   
    54    27    28 ar  
    55    27    53 1   
    56    28    29 ar  
    57    28    54 1   
    58    29    30 ar  
    59    29    55 1   
    60    30    56 1   
@<TRIPOS>SUBSTRUCTURE
     1 OJ3         1 TEMP              0 ****  ****    0 ROOT
