@<TRIPOS>MOLECULE
OJ5
   37    40     1     0     0
SMALL
bcc


@<TRIPOS>ATOM
      1 N1           0.1480     3.2320    19.1130 nb         1 OJ5      -0.739000
      2 C2           6.1690     6.6230    18.7990 ca         1 OJ5      -0.125000
      3 N3           2.0520     6.7860    20.1050 nh         1 OJ5      -0.753300
      4 C4           4.2830     5.5970    17.6940 ca         1 OJ5      -0.008800
      5 C5           3.0670     4.7810    17.7440 cc         1 OJ5      -0.062400
      6 C6           2.8330     3.7120    16.9200 cd         1 OJ5      -0.103100
      7 C            5.9670     6.7580    16.4300 ca         1 OJ5       0.026400
      8 C15          4.7840     6.0400    16.4690 ca         1 OJ5      -0.125000
      9 C3           4.9910     5.8970    18.8590 ca         1 OJ5      -0.109000
     10 C1           6.6730     7.0630    17.5830 ca         1 OJ5      -0.122000
     11 C14          1.9900     4.7830    18.6990 ca         1 OJ5      -0.337400
     12 C7           1.1940     3.6600    18.4090 ca         1 OJ5       0.460800
     13 N            1.7050     3.0530    17.3140 na         1 OJ5      -0.261100
     14 C9           1.5230     5.5650    19.7790 ca         1 OJ5       0.734200
     15 N2           0.5240     5.1020    20.5250 nb         1 OJ5      -0.807000
     16 C8          -0.0890     3.9740    20.1740 ca         1 OJ5       0.695900
     17 C13          2.1830     7.7800    19.0430 c6         1 OJ5       0.165300
     18 C12          3.1070     8.8980    19.4810 c6         1 OJ5       0.122900
     19 O            2.6740     9.4850    20.6880 os         1 OJ5      -0.399600
     20 C11          2.5930     8.5180    21.7100 c6         1 OJ5       0.122900
     21 C10          1.6340     7.3960    21.3580 c6         1 OJ5       0.165300
     22 H1           6.7080     6.8480    19.7100 ha         1 OJ5       0.137000
     23 H2           3.4260     3.3430    16.0990 h4         1 OJ5       0.173000
     24 H3           4.2430     5.8350    15.5540 ha         1 OJ5       0.146000
     25 H4           4.6190     5.5580    19.8160 ha         1 OJ5       0.150000
     26 H5           7.5920     7.6300    17.5370 ha         1 OJ5       0.148000
     27 H6           1.3480     2.2070    16.8990 hn         1 OJ5       0.316700
     28 H7          -0.8930     3.6490    20.8260 h5         1 OJ5       0.048100
     29 H8           1.1930     8.1920    18.7990 h1         1 OJ5       0.059700
     30 H9           2.5750     7.3330    18.1340 h1         1 OJ5       0.059700
     31 H10          4.1280     8.5080    19.5840 h1         1 OJ5       0.053950
     32 H11          3.1190     9.6780    18.7190 h1         1 OJ5       0.053950
     33 H12          3.5850     8.0970    21.9230 h1         1 OJ5       0.053950
     34 H13          2.2440     9.0230    22.6120 h1         1 OJ5       0.053950
     35 H14          0.6090     7.7830    21.2920 h1         1 OJ5       0.059700
     36 H15          1.6510     6.6530    22.1530 h1         1 OJ5       0.059700
     37 CL           6.5710     7.3010    14.8960 cl         1 OJ5      -0.115400
@<TRIPOS>BOND
     1     1    12 ar  
     2     1    16 ar  
     3     2     9 ar  
     4     2    10 ar  
     5     2    22 1   
     6     3    14 1   
     7     3    17 1   
     8     3    21 1   
     9     4     5 1   
    10     4     8 ar  
    11     4     9 ar  
    12     5     6 2   
    13     5    11 1   
    14     6    13 1   
    15     6    23 1   
    16     7     8 ar  
    17     7    10 ar  
    18     7    37 1   
    19     8    24 1   
    20     9    25 1   
    21    10    26 1   
    22    11    12 ar  
    23    11    14 ar  
    24    12    13 1   
    25    13    27 1   
    26    14    15 ar  
    27    15    16 ar  
    28    16    28 1   
    29    17    18 1   
    30    17    29 1   
    31    17    30 1   
    32    18    19 1   
    33    18    31 1   
    34    18    32 1   
    35    19    20 1   
    36    20    21 1   
    37    20    33 1   
    38    20    34 1   
    39    21    35 1   
    40    21    36 1   
@<TRIPOS>SUBSTRUCTURE
     1 OJ5         1 TEMP              0 ****  ****    0 ROOT
