@<TRIPOS>MOLECULE
OJ5
   37    40     1     0     0
SMALL
No Charge or Current Charge


@<TRIPOS>ATOM
      1 N1           0.0730     3.1810    19.0610 nb         1 OJ5      -0.213000
      2 C2           6.0210     6.6370    19.0520 ca         1 OJ5      -0.107000
      3 N3           2.0010     6.7800    19.9730 nh         1 OJ5      -0.753300
      4 C4           4.2040     5.5650    17.8200 ca         1 OJ5      -0.008800
      5 C5           3.0180     4.7130    17.8000 cc         1 OJ5      -0.062400
      6 C6           2.9570     3.6030    16.9770 cd         1 OJ5      -0.153100
      7 C            5.8500     6.9260    16.6440 ca         1 OJ5       0.118000
      8 C15          4.7050     6.1130    16.6240 ca         1 OJ5      -0.107000
      9 C3           4.8720     5.8280    19.0320 ca         1 OJ5      -0.091000
     10 C1           6.5090     7.1900    17.8560 ca         1 OJ5      -0.104000
     11 C14          1.8810     4.6650    18.6770 ca         1 OJ5      -0.206800
     12 C7           1.1820     3.5180    18.3770 ca         1 OJ5       0.132500
     13 N            1.8030     2.8580    17.3250 na         1 OJ5      -0.311400
     14 C9           1.4090     5.5330    19.6810 ca         1 OJ5       0.405900
     15 N2           0.3020     5.1980    20.3790 nb         1 OJ5      -0.281000
     16 C8          -0.3040     4.0370    20.0390 ca         1 OJ5       0.169900
     17 C13          1.9950     7.8460    18.9190 c6         1 OJ5       0.165300
     18 C12          3.0290     8.9740    19.2130 c6         1 OJ5       0.146100
     19 O            2.8640     9.4860    20.5560 os         1 OJ5      -0.446000
     20 C11          3.0280     8.4600    21.5640 c6         1 OJ5       0.146100
     21 C10          1.9820     7.3230    21.3700 c6         1 OJ5       0.165300
     22 H1           6.5300     6.8370    19.9930 ha         1 OJ5       0.119000
     23 H2           3.6620     3.2670    16.2190 h4         1 OJ5       0.223000
     24 H3           4.2020     5.9170    15.6810 ha         1 OJ5       0.128000
     25 H4           4.4960     5.4010    19.9590 ha         1 OJ5       0.132000
     26 H5           7.3960     7.8190    17.8670 ha         1 OJ5       0.130000
     27 H6           1.4950     1.9840    16.9090 hn         1 OJ5       0.367000
     28 H7          -1.1980     3.7700    20.6010 h5         1 OJ5       0.048100
     29 H8           0.9940     8.2980    18.8550 h1         1 OJ5       0.059700
     30 H9           2.2160     7.4190    17.9310 h1         1 OJ5       0.059700
     31 H10          4.0510     8.5850    19.0980 h1         1 OJ5       0.053950
     32 H11          2.8980     9.7950    18.4950 h1         1 OJ5       0.053950
     33 H12          4.0450     8.0460    21.4960 h1         1 OJ5       0.053950
     34 H13          2.9100     8.9100    22.5590 h1         1 OJ5       0.053950
     35 H14          0.9830     7.7170    21.6090 h1         1 OJ5       0.059700
     36 H15          2.2010     6.5230    22.0920 h1         1 OJ5       0.059700
     37 Cl           6.4610     7.6170    15.1470 cl         1 OJ5      -0.207000
@<TRIPOS>BOND
     1     1    12 ar  
     2     1    16 ar  
     3     2     9 ar  
     4     2    10 ar  
     5     2    22 1   
     6     3    14 1   
     7     3    17 1   
     8     3    21 1   
     9     4     5 1   
    10     4     8 ar  
    11     4     9 ar  
    12     5     6 2   
    13     5    11 1   
    14     6    13 1   
    15     6    23 1   
    16     7     8 ar  
    17     7    10 ar  
    18     7    37 1   
    19     8    24 1   
    20     9    25 1   
    21    10    26 1   
    22    11    12 ar  
    23    11    14 ar  
    24    12    13 1   
    25    13    27 1   
    26    14    15 ar  
    27    15    16 ar  
    28    16    28 1   
    29    17    18 1   
    30    17    29 1   
    31    17    30 1   
    32    18    19 1   
    33    18    31 1   
    34    18    32 1   
    35    19    20 1   
    36    20    21 1   
    37    20    33 1   
    38    20    34 1   
    39    21    35 1   
    40    21    36 1   
@<TRIPOS>SUBSTRUCTURE
     1 OJ5         1 TEMP              0 ****  ****    0 ROOT
