@<TRIPOS>MOLECULE
OJ6
   22    22     1     0     0
SMALL
No Charge or Current Charge


@<TRIPOS>ATOM
      1 C1          23.0150     9.6380    22.1940 c6         1 OJ6      -0.105900
      2 C2          22.4360     8.5510    21.2490 c6         1 OJ6       0.130300
      3 C3          23.3130     8.3730    19.9660 c6         1 OJ6       0.186800
      4 C4          24.8190     8.1290    20.3430 c6         1 OJ6       0.186800
      5 C5          25.3550     9.2790    21.2490 c6         1 OJ6       0.130300
      6 C6          24.5080     9.3930    22.5390 c6         1 OJ6      -0.105900
      7 O7          25.6700     8.0300    19.1840 oh         1 OJ6      -0.695000
      8 O8          26.7360     9.0480    21.5760 oh         1 OJ6      -0.712500
      9 O9          22.7690     7.2700    19.2160 oh         1 OJ6      -0.695000
     10 O1          22.3130     7.2940    21.9390 oh         1 OJ6      -0.712500
     11 H1          22.9140    10.6210    21.7130 hc         1 OJ6       0.050700
     12 H2          22.4220     9.6930    23.1170 hc         1 OJ6       0.050700
     13 H3          21.4370     8.8860    20.9310 h1         1 OJ6       0.031700
     14 H4          23.2530     9.2990    19.3740 h1         1 OJ6       0.053200
     15 H5          24.8780     7.1940    20.9210 h1         1 OJ6       0.053200
     16 H6          25.2630    10.2260    20.6970 h1         1 OJ6       0.031700
     17 H7          24.6100     8.4780    23.1400 hc         1 OJ6       0.050700
     18 H8          24.8790    10.2190    23.1620 hc         1 OJ6       0.050700
     19 H9          26.5670     8.2340    19.5420 ho         1 OJ6       0.507000
     20 H10         27.0160     9.7780    22.1750 ho         1 OJ6       0.503500
     21 H11         22.4290     6.6710    19.9250 ho         1 OJ6       0.507000
     22 H12         21.7650     7.4600    22.7430 ho         1 OJ6       0.503500
@<TRIPOS>BOND
     1     1     2 1   
     2     1     6 1   
     3     1    11 1   
     4     1    12 1   
     5     2     3 1   
     6     2    10 1   
     7     2    13 1   
     8     3     4 1   
     9     3     9 1   
    10     3    14 1   
    11     4     5 1   
    12     4     7 1   
    13     4    15 1   
    14     5     6 1   
    15     5     8 1   
    16     5    16 1   
    17     6    17 1   
    18     6    18 1   
    19     7    19 1   
    20     8    20 1   
    21     9    21 1   
    22    10    22 1   
@<TRIPOS>SUBSTRUCTURE
     1 OJ6         1 TEMP              0 ****  ****    0 ROOT
