@<TRIPOS>MOLECULE
OJ6
   22    22     1     0     0
SMALL
abcg2


@<TRIPOS>ATOM
      1 C1          23.0000     9.6150    22.2020 c6         1 OJ6      -0.105900
      2 C2          22.4980     8.4420    21.3650 c6         1 OJ6       0.130300
      3 C3          23.3550     8.2910    20.1070 c6         1 OJ6       0.186800
      4 C4          24.8290     8.1210    20.4530 c6         1 OJ6       0.186800
      5 C5          25.3090     9.3000    21.2950 c6         1 OJ6       0.130300
      6 C6          24.4730     9.4560    22.5570 c6         1 OJ6      -0.105900
      7 O7          25.5520     8.0290    19.2480 oh         1 OJ6      -0.695000
      8 O8          26.6760     9.0680    21.5740 oh         1 OJ6      -0.712500
      9 O9          22.9630     7.1940    19.3180 oh         1 OJ6      -0.695000
     10 O1          22.5430     7.2220    22.0730 oh         1 OJ6      -0.712500
     11 H1          22.8490    10.5400    21.6360 hc         1 OJ6       0.050700
     12 H2          22.3930     9.7110    23.1050 hc         1 OJ6       0.050700
     13 H3          21.4670     8.6600    21.0440 h1         1 OJ6       0.031700
     14 H4          23.2520     9.2330    19.5440 h1         1 OJ6       0.053200
     15 H5          24.9510     7.2040    21.0510 h1         1 OJ6       0.053200
     16 H6          25.1950    10.2120    20.6870 h1         1 OJ6       0.031700
     17 H7          24.6150     8.5840    23.2000 hc         1 OJ6       0.050700
     18 H8          24.8210    10.3260    23.1210 hc         1 OJ6       0.050700
     19 H9          26.4880     8.0230    19.4750 ho         1 OJ6       0.507000
     20 H10         27.0620     9.8840    21.9050 ho         1 OJ6       0.503500
     21 H11         22.0460     7.3240    19.0560 ho         1 OJ6       0.507000
     22 H12         22.0290     7.3250    22.8810 ho         1 OJ6       0.503500
@<TRIPOS>BOND
     1     1     2 1   
     2     1     6 1   
     3     1    11 1   
     4     1    12 1   
     5     2     3 1   
     6     2    10 1   
     7     2    13 1   
     8     3     4 1   
     9     3     9 1   
    10     3    14 1   
    11     4     5 1   
    12     4     7 1   
    13     4    15 1   
    14     5     6 1   
    15     5     8 1   
    16     5    16 1   
    17     6    17 1   
    18     6    18 1   
    19     7    19 1   
    20     8    20 1   
    21     9    21 1   
    22    10    22 1   
@<TRIPOS>SUBSTRUCTURE
     1 OJ6         1 TEMP              0 ****  ****    0 ROOT
