@<TRIPOS>MOLECULE
OJ7
   31    33     1     0     0
SMALL
No Charge or Current Charge


@<TRIPOS>ATOM
      1 C4          -2.5490     0.1760     0.3440 ca         1 OJ7      -0.066800
      2 C14          0.5570     0.6070    -0.7350 ca         1 OJ7       0.050000
      3 C5          -3.7000    -0.5350     0.1470 ca         1 OJ7      -0.048200
      4 C6          -4.9560     0.0270     0.4150 ca         1 OJ7      -0.120000
      5 C11          2.0410    -1.0580     0.8830 ca         1 OJ7       0.398900
      6 C7          -5.0030     1.3520     0.9000 ca         1 OJ7      -0.094000
      7 C8          -3.8070     2.0800     1.1110 ca         1 OJ7      -0.133000
      8 C9          -2.5560     1.4890     0.8360 ca         1 OJ7      -0.061000
      9 C10         -0.0260    -0.4380     0.0230 ca         1 OJ7       0.504800
     10 C12          2.7050    -0.0450     0.1690 ca         1 OJ7      -0.267300
     11 C13          1.9440     0.8070    -0.6580 ca         1 OJ7      -0.021000
     12 N1          -3.4220    -1.8150    -0.3140 na         1 OJ7      -0.216700
     13 N2           0.7080    -1.2590     0.8140 nb         1 OJ7      -0.681000
     14 C3          -1.4680    -0.6920    -0.0150 cc         1 OJ7      -0.246000
     15 C2          -2.0130    -1.9120    -0.4020 cd         1 OJ7       0.008700
     16 Cl1         -0.3960     1.6390    -1.8090 cl         1 OJ7      -0.161000
     17 C15          4.2150     0.1050     0.3190 c3         1 OJ7       0.370300
     18 F1           4.5380     0.6370     1.5180 f          1 OJ7      -0.110667
     19 F2           4.8480    -1.0860     0.2300 f          1 OJ7      -0.110667
     20 F3           4.7580     0.9050    -0.6270 f          1 OJ7      -0.110667
     21 H1          -5.8700    -0.5410     0.2580 ha         1 OJ7       0.114000
     22 H2           2.5930    -1.7340     1.5350 h4         1 OJ7       0.037100
     23 H3          -5.9640     1.8150     1.1170 ha         1 OJ7       0.111000
     24 H4          -3.8530     3.0980     1.4900 ha         1 OJ7       0.113000
     25 H5          -1.6300     2.0360     1.0000 ha         1 OJ7       0.119000
     26 H6           2.4060     1.6060    -1.2330 ha         1 OJ7       0.146000
     27 H7          -4.0940    -2.5410    -0.5370 hn         1 OJ7       0.349000
     28 H8          -0.8770    -3.7070    -0.0310 hc         1 OJ7       0.057367
     29 H9          -2.0060    -3.8380    -1.3900 hc         1 OJ7       0.057367
     30 H10         -0.5060    -2.9190    -1.5750 hc         1 OJ7       0.057367
     31 C1          -1.3140    -3.1610    -0.8750 c3         1 OJ7      -0.044900
@<TRIPOS>BOND
     1     1     3 ar  
     2     1     8 ar  
     3     1    14 1   
     4     2     9 ar  
     5     2    11 ar  
     6     2    16 1   
     7     3     4 ar  
     8     3    12 1   
     9     4     6 ar  
    10     4    21 1   
    11     5    10 ar  
    12     5    13 ar  
    13     5    22 1   
    14     6     7 ar  
    15     6    23 1   
    16     7     8 ar  
    17     7    24 1   
    18     8    25 1   
    19     9    13 ar  
    20     9    14 1   
    21    10    11 ar  
    22    10    17 1   
    23    11    26 1   
    24    12    15 1   
    25    12    27 1   
    26    14    15 2   
    27    15    31 1   
    28    17    18 1   
    29    17    19 1   
    30    17    20 1   
    31    28    31 1   
    32    29    31 1   
    33    30    31 1   
@<TRIPOS>SUBSTRUCTURE
     1 OJ7         1 TEMP              0 ****  ****    0 ROOT
