@<TRIPOS>MOLECULE
OJ7
   31    33     1     0     0
SMALL
abcg2


@<TRIPOS>ATOM
      1 C4          -2.4780     0.1810     0.2510 ca         1 OJ7      -0.066800
      2 C14          0.5850     0.6380    -0.7320 ca         1 OJ7       0.050000
      3 C5          -3.6860    -0.5300     0.1700 ca         1 OJ7      -0.048200
      4 C6          -4.9130     0.0400     0.4920 ca         1 OJ7      -0.120000
      5 C11          2.0780    -1.1930     0.5700 ca         1 OJ7       0.398900
      6 C7          -4.9130     1.3370     0.9110 ca         1 OJ7      -0.094000
      7 C8          -3.7180     2.0620     1.0540 ca         1 OJ7      -0.133000
      8 C9          -2.5000     1.4960     0.7320 ca         1 OJ7      -0.061000
      9 C10          0.0050    -0.4910    -0.1330 ca         1 OJ7       0.504800
     10 C12          2.6990    -0.0270     0.1410 ca         1 OJ7      -0.267300
     11 C13          1.9310     0.8930    -0.5550 ca         1 OJ7      -0.021000
     12 N1          -3.3810    -1.8050    -0.2210 na         1 OJ7      -0.216700
     13 N2           0.7820    -1.4050     0.4450 nb         1 OJ7      -0.681000
     14 C3          -1.4320    -0.7330    -0.1330 cc         1 OJ7      -0.246000
     15 C2          -2.0370    -1.9380    -0.4040 cd         1 OJ7       0.008700
     16 CL1         -0.3260     1.6730    -1.7620 cl         1 OJ7      -0.161000
     17 C15          4.1420     0.2370     0.4320 c3         1 OJ7       0.370300
     18 F1           4.2950     0.9440     1.5550 f          1 OJ7      -0.110667
     19 F2           4.8340    -0.8970     0.5770 f          1 OJ7      -0.110667
     20 F3           4.7210     0.9350    -0.5520 f          1 OJ7      -0.110667
     21 H1          -5.8400    -0.5110     0.4080 ha         1 OJ7       0.114000
     22 H2           2.6390    -1.9910     1.0410 h4         1 OJ7       0.037100
     23 H3          -5.8490     1.8200     1.1610 ha         1 OJ7       0.111000
     24 H4          -3.7660     3.0750     1.4290 ha         1 OJ7       0.113000
     25 H5          -1.5830     2.0540     0.8620 ha         1 OJ7       0.119000
     26 H6           2.3720     1.7830    -0.9860 ha         1 OJ7       0.146000
     27 H7          -4.0450    -2.5140    -0.4740 hn         1 OJ7       0.349000
     28 H8          -1.4160    -3.9140     0.0870 hc         1 OJ7       0.057367
     29 H9          -2.0220    -3.7450    -1.5620 hc         1 OJ7       0.057367
     30 H10         -0.4250    -3.1300    -1.1200 hc         1 OJ7       0.057367
     31 C1          -1.4480    -3.2490    -0.7780 c3         1 OJ7      -0.044900
@<TRIPOS>BOND
     1     1     3 ar  
     2     1     8 ar  
     3     1    14 1   
     4     2     9 ar  
     5     2    11 ar  
     6     2    16 1   
     7     3     4 ar  
     8     3    12 1   
     9     4     6 ar  
    10     4    21 1   
    11     5    10 ar  
    12     5    13 ar  
    13     5    22 1   
    14     6     7 ar  
    15     6    23 1   
    16     7     8 ar  
    17     7    24 1   
    18     8    25 1   
    19     9    13 ar  
    20     9    14 1   
    21    10    11 ar  
    22    10    17 1   
    23    11    26 1   
    24    12    15 1   
    25    12    27 1   
    26    14    15 2   
    27    15    31 1   
    28    17    18 1   
    29    17    19 1   
    30    17    20 1   
    31    28    31 1   
    32    29    31 1   
    33    30    31 1   
@<TRIPOS>SUBSTRUCTURE
     1 OJ7         1 TEMP              0 ****  ****    0 ROOT
