@<TRIPOS>MOLECULE
OJ8
   52    56     1     0     0
SMALL
No Charge or Current Charge


@<TRIPOS>ATOM
      1 C12          0.6450    -1.8850    -0.5300 c6         1 OJ8      -0.092700
      2 C13          2.0190    -2.6360    -0.5520 c3         1 OJ8       0.164000
      3 O14          1.9130    -3.9430     0.0540 oh         1 OJ8      -0.639000
      4 C15          3.1580    -1.8500     0.0860 cc         1 OJ8       0.403300
      5 CAB         -7.1140     2.5970    -1.9090 ca         1 OJ8      -0.142000
      6 CAC          6.7890     3.2670    -0.2290 ca         1 OJ8      -0.156000
      7 CAD         -5.7290     2.7800    -1.7490 ca         1 OJ8      -0.081000
      8 CAE         -7.8240     1.7720    -1.0190 ca         1 OJ8      -0.081000
      9 CAF          6.6910     2.7660     1.0780 ca         1 OJ8      -0.071000
     10 CAG          6.1330     2.5900    -1.2700 ca         1 OJ8       0.342900
     11 CAH         -5.0520     2.1320    -0.7010 ca         1 OJ8      -0.158000
     12 CAI         -7.1460     1.1250     0.0290 ca         1 OJ8      -0.158000
     13 CAJ          5.9350     1.6010     1.2850 ca         1 OJ8      -0.142000
     14 CAK         -2.9860     0.2190     2.2130 ca         1 OJ8      -0.114000
     15 CAL         -1.6940    -0.3250     2.1300 ca         1 OJ8      -0.100000
     16 CAM          4.7700    -1.2000     1.3340 cd         1 OJ8       0.250900
     17 CAN         -3.4440    -0.5340    -0.0540 ca         1 OJ8      -0.128000
     18 CAO         -1.7300    -1.7760    -1.4460 c6         1 OJ8      -0.033100
     19 CAP         -0.4610    -2.6460    -1.3040 c6         1 OJ8      -0.065400
     20 CAQ          0.1500    -1.5620     0.9080 c6         1 OJ8      -0.028100
     21 NAR          5.4040     1.4670    -1.0710 nb         1 OJ8      -0.649000
     22 NAS          3.8720    -2.2350     1.1450 nd         1 OJ8      -0.687000
     23 OAU          3.5200    -0.6480    -0.4480 os         1 OJ8      -0.215000
     24 CAV         -5.7600     1.2940     0.1840 ca         1 OJ8       0.134100
     25 CAW         -3.8580     0.1270     1.1180 ca         1 OJ8       0.100100
     26 CAX         -1.2640    -0.9700     0.9540 ca         1 OJ8      -0.074300
     27 CAY         -2.1510    -1.0850    -0.1440 ca         1 OJ8      -0.059300
     28 CAZ          5.2990     0.9760     0.1900 ca         1 OJ8       0.319000
     29 CBA          4.5190    -0.2500     0.3820 cc         1 OJ8       0.049000
     30 H12          0.8180    -0.9320    -1.0500 hc         1 OJ8       0.070700
     31 H13          2.2940    -2.7540    -1.6090 h1         1 OJ8       0.094700
     32 HO14         2.5840    -3.9400     0.7780 ho         1 OJ8       0.466000
     33 HAC          7.3620     4.1660    -0.4400 ha         1 OJ8       0.128000
     34 HAD         -5.1820     3.4240    -2.4350 ha         1 OJ8       0.112500
     35 HAE         -8.8960     1.6360    -1.1410 ha         1 OJ8       0.112500
     36 HAF          7.1870     3.2670     1.9070 ha         1 OJ8       0.124000
     37 HAG          6.1930     2.9560    -2.2940 h4         1 OJ8       0.024100
     38 HAH         -3.9830     2.2850    -0.5750 ha         1 OJ8       0.126500
     39 HAI         -7.6930     0.4880     0.7200 ha         1 OJ8       0.126500
     40 HAJ          5.8370     1.1930     2.2880 ha         1 OJ8       0.128000
     41 HAK         -3.3110     0.7160     3.1230 ha         1 OJ8       0.130000
     42 HAL         -1.0240    -0.2450     2.9830 ha         1 OJ8       0.115000
     43 HAM          5.5200    -1.2080     2.1160 h4         1 OJ8       0.050100
     44 HAN         -4.1270    -0.6220    -0.8950 ha         1 OJ8       0.126000
     45 HAO         -1.5540    -1.0050    -2.2100 hc         1 OJ8       0.052200
     46 HAOA        -2.5540    -2.3960    -1.8250 hc         1 OJ8       0.052200
     47 HAP         -0.1030    -2.9380    -2.3010 hc         1 OJ8       0.052700
     48 HAPA        -0.7140    -3.5770    -0.7780 hc         1 OJ8       0.052700
     49 HAQ          0.1580    -2.4750     1.5190 hc         1 OJ8       0.053700
     50 HAQA         0.8510    -0.8680     1.3910 hc         1 OJ8       0.053700
     51 OAT         -5.1240     0.6590     1.2270 os         1 OJ8      -0.256200
     52 HAB         -7.6370     3.0990    -2.7200 ha         1 OJ8       0.114000
@<TRIPOS>BOND
     1     1     2 1   
     2     1    19 1   
     3     1    20 1   
     4     1    30 1   
     5     2     3 1   
     6     2     4 1   
     7     2    31 1   
     8     3    32 1   
     9     4    22 2   
    10     4    23 1   
    11     5     7 ar  
    12     5     8 ar  
    13     5    52 1   
    14     6     9 ar  
    15     6    10 ar  
    16     6    33 1   
    17     7    11 ar  
    18     7    34 1   
    19     8    12 ar  
    20     8    35 1   
    21     9    13 ar  
    22     9    36 1   
    23    10    21 ar  
    24    10    37 1   
    25    11    24 ar  
    26    11    38 1   
    27    12    24 ar  
    28    12    39 1   
    29    13    28 ar  
    30    13    40 1   
    31    14    15 ar  
    32    14    25 ar  
    33    14    41 1   
    34    15    26 ar  
    35    15    42 1   
    36    16    22 1   
    37    16    29 2   
    38    16    43 1   
    39    17    25 ar  
    40    17    27 ar  
    41    17    44 1   
    42    18    19 1   
    43    18    27 1   
    44    18    45 1   
    45    18    46 1   
    46    19    47 1   
    47    19    48 1   
    48    20    26 1   
    49    20    49 1   
    50    20    50 1   
    51    21    28 ar  
    52    23    29 1   
    53    24    51 1   
    54    25    51 1   
    55    26    27 ar  
    56    28    29 1   
@<TRIPOS>SUBSTRUCTURE
     1 OJ8         1 TEMP              0 ****  ****    0 ROOT
