@<TRIPOS>MOLECULE
OJ8
   52    56     1     0     0
SMALL
abcg2


@<TRIPOS>ATOM
      1 C12          0.7380    -2.0990    -0.4540 c6         1 OJ8      -0.092700
      2 C13          2.1090    -2.7930    -0.3790 c3         1 OJ8       0.164000
      3 O14          2.0750    -4.0460     0.2410 oh         1 OJ8      -0.639000
      4 C15          3.1190    -1.9130     0.2930 cc         1 OJ8       0.403300
      5 CAB         -6.4010     3.3680    -1.4690 ca         1 OJ8      -0.142000
      6 CAC          5.9710     3.4920    -0.6170 ca         1 OJ8      -0.156000
      7 CAD         -5.0440     3.1750    -1.2520 ca         1 OJ8      -0.081000
      8 CAE         -7.3100     2.4780    -0.9110 ca         1 OJ8      -0.081000
      9 CAF          6.3770     2.9500     0.5950 ca         1 OJ8      -0.071000
     10 CAG          5.0490     2.7830    -1.3720 ca         1 OJ8       0.342900
     11 CAH         -4.5880     2.1070    -0.4890 ca         1 OJ8      -0.158000
     12 CAI         -6.8720     1.4050    -0.1510 ca         1 OJ8      -0.158000
     13 CAJ          5.8520     1.7360     0.9980 ca         1 OJ8      -0.142000
     14 CAK         -3.0690    -0.0800     1.9600 ca         1 OJ8      -0.114000
     15 CAL         -1.7740    -0.5720     1.9590 ca         1 OJ8      -0.100000
     16 CAM          4.4820    -0.9970     1.6170 cd         1 OJ8       0.250900
     17 CAN         -3.3550    -0.9450    -0.2670 ca         1 OJ8      -0.128000
     18 CAO         -1.5300    -2.1350    -1.4960 c6         1 OJ8      -0.033100
     19 CAP         -0.2670    -2.9400    -1.2310 c6         1 OJ8      -0.065400
     20 CAQ          0.1690    -1.7630     0.9210 c6         1 OJ8      -0.028100
     21 NAR          4.5370     1.6180    -0.9990 nb         1 OJ8      -0.649000
     22 NAS          3.6840    -2.1020     1.4350 nd         1 OJ8      -0.687000
     23 OAU          3.4730    -0.7720    -0.3000 os         1 OJ8      -0.215000
     24 CAV         -5.5090     1.2220     0.0610 ca         1 OJ8       0.134100
     25 CAW         -3.8550    -0.2750     0.8360 ca         1 OJ8       0.100100
     26 CAX         -1.2460    -1.2440     0.8590 ca         1 OJ8      -0.074300
     27 CAY         -2.0500    -1.4330    -0.2680 ca         1 OJ8      -0.059300
     28 CAZ          4.9300     1.1020     0.1640 ca         1 OJ8       0.319000
     29 CBA          4.3530    -0.1760     0.5470 cc         1 OJ8       0.049000
     30 H12          0.8910    -1.1630    -1.0050 hc         1 OJ8       0.070700
     31 H13          2.4410    -2.9660    -1.4090 h1         1 OJ8       0.094700
     32 HO14         2.0450    -3.9300     1.1980 ho         1 OJ8       0.466000
     33 HAC          6.3560     4.4390    -0.9690 ha         1 OJ8       0.128000
     34 HAD         -4.3240     3.8620    -1.6770 ha         1 OJ8       0.112500
     35 HAE         -8.3720     2.6140    -1.0720 ha         1 OJ8       0.112500
     36 HAF          7.0950     3.4660     1.2190 ha         1 OJ8       0.124000
     37 HAG          4.7070     3.1730    -2.3230 h4         1 OJ8       0.024100
     38 HAH         -3.5260     1.9790    -0.3280 ha         1 OJ8       0.126500
     39 HAI         -7.5810     0.7100     0.2810 ha         1 OJ8       0.126500
     40 HAJ          6.1510     1.2910     1.9370 ha         1 OJ8       0.128000
     41 HAK         -3.4620     0.4450     2.8210 ha         1 OJ8       0.130000
     42 HAL         -1.1530    -0.4220     2.8340 ha         1 OJ8       0.115000
     43 HAM          5.0910    -0.8690     2.4980 h4         1 OJ8       0.050100
     44 HAN         -3.9850    -1.0910    -1.1370 ha         1 OJ8       0.126000
     45 HAO         -1.3300    -1.3850    -2.2710 hc         1 OJ8       0.052200
     46 HAOA        -2.3090    -2.7810    -1.9060 hc         1 OJ8       0.052200
     47 HAP          0.1610    -3.2680    -2.1820 hc         1 OJ8       0.052700
     48 HAPA        -0.5130    -3.8420    -0.6650 hc         1 OJ8       0.052700
     49 HAQ          0.1840    -2.6560     1.5570 hc         1 OJ8       0.053700
     50 HAQA         0.7930    -1.0230     1.4280 hc         1 OJ8       0.053700
     51 OAT         -5.1570     0.1650     0.8460 os         1 OJ8      -0.256200
     52 HAB         -6.7470     4.2040    -2.0630 ha         1 OJ8       0.114000
@<TRIPOS>BOND
     1     1     2 1   
     2     1    19 1   
     3     1    20 1   
     4     1    30 1   
     5     2     3 1   
     6     2     4 1   
     7     2    31 1   
     8     3    32 1   
     9     4    22 2   
    10     4    23 1   
    11     5     7 ar  
    12     5     8 ar  
    13     5    52 1   
    14     6     9 ar  
    15     6    10 ar  
    16     6    33 1   
    17     7    11 ar  
    18     7    34 1   
    19     8    12 ar  
    20     8    35 1   
    21     9    13 ar  
    22     9    36 1   
    23    10    21 ar  
    24    10    37 1   
    25    11    24 ar  
    26    11    38 1   
    27    12    24 ar  
    28    12    39 1   
    29    13    28 ar  
    30    13    40 1   
    31    14    15 ar  
    32    14    25 ar  
    33    14    41 1   
    34    15    26 ar  
    35    15    42 1   
    36    16    22 1   
    37    16    29 2   
    38    16    43 1   
    39    17    25 ar  
    40    17    27 ar  
    41    17    44 1   
    42    18    19 1   
    43    18    27 1   
    44    18    45 1   
    45    18    46 1   
    46    19    47 1   
    47    19    48 1   
    48    20    26 1   
    49    20    49 1   
    50    20    50 1   
    51    21    28 ar  
    52    23    29 1   
    53    24    51 1   
    54    25    51 1   
    55    26    27 ar  
    56    28    29 1   
@<TRIPOS>SUBSTRUCTURE
     1 OJ8         1 TEMP              0 ****  ****    0 ROOT
