@<TRIPOS>MOLECULE
OJ9
   37    40     1     0     0
SMALL
abcg2


@<TRIPOS>ATOM
      1 N1           5.8090     0.0050    17.2750 nb         1 OJ9      -0.652000
      2 C4          10.2060     1.0560    25.4620 cc         1 OJ9      -0.058900
      3 C5          10.5430    -0.1450    23.6540 ca         1 OJ9       0.079100
      4 C6          10.3480    -0.9600    22.5490 ca         1 OJ9      -0.055300
      5 C7           8.9930    -1.4600    22.1470 c3         1 OJ9      -0.101100
      6 C8           8.2400    -0.4800    21.2510 c          1 OJ9       0.597100
      7 C10          6.5770    -0.5970    18.2170 ca         1 OJ9       0.303900
      8 C13          3.7030     2.1380    19.4310 ca         1 OJ9      -0.086000
      9 C15          4.2610     1.7390    21.7440 ca         1 OJ9      -0.094000
     10 C17          5.4820     0.5570    20.0300 ca         1 OJ9      -0.002000
     11 O1           8.4390     0.7260    21.2670 o          1 OJ9      -0.558100
     12 O            9.5720     0.2840    24.5170 os         1 OJ9      -0.180200
     13 C3          11.5360     1.1360    25.2380 cd         1 OJ9      -0.231200
     14 C2          11.7920     0.3550    24.0540 ca         1 OJ9      -0.100800
     15 C1          12.9290     0.0340    23.3080 ca         1 OJ9      -0.046000
     16 C18         11.4920    -1.2710    21.8200 ca         1 OJ9      -0.076000
     17 C           12.7440    -0.7770    22.2020 ca         1 OJ9       0.105000
     18 CL          14.1400    -1.2130    21.2300 cl         1 OJ9      -0.211000
     19 C9           6.4620    -0.3600    19.5640 ca         1 OJ9      -0.073000
     20 C16          5.2340     0.8390    21.3930 ca         1 OJ9      -0.084000
     21 C14          3.4930     2.4020    20.7590 ca         1 OJ9      -0.106000
     22 C12          4.6940     1.2070    19.0390 ca         1 OJ9      -0.090000
     23 C11          4.9150     0.8780    17.6810 ca         1 OJ9       0.356900
     24 H2           8.3670    -1.6110    23.0310 hc         1 OJ9       0.070700
     25 H3           9.0790    -2.4250    21.6480 hc         1 OJ9       0.070700
     26 H4           7.3180    -1.3040    17.8600 h4         1 OJ9       0.020100
     27 H5           3.1140     2.6280    18.6650 ha         1 OJ9       0.118000
     28 H6           4.0740     1.9470    22.7900 ha         1 OJ9       0.116000
     29 H7          12.2520     1.6780    25.8340 ha         1 OJ9       0.217000
     30 H8          13.9100     0.3970    23.5800 ha         1 OJ9       0.138000
     31 H9          11.4120    -1.9050    20.9470 ha         1 OJ9       0.130000
     32 H11          5.8120     0.3380    22.1560 ha         1 OJ9       0.123000
     33 H12          2.7340     3.1120    21.0620 ha         1 OJ9       0.117000
     34 H13          4.3120     1.3640    16.9190 h4         1 OJ9       0.021100
     35 N            7.2960    -1.0670    20.4680 ns         1 OJ9      -0.173000
     36 H1           9.5670     1.4710    26.2220 h4         1 OJ9       0.240000
     37 H10          7.2940    -2.0740    20.4060 hn         1 OJ9       0.154000
@<TRIPOS>BOND
     1     1     7 ar  
     2     1    23 ar  
     3     2    12 1   
     4     2    13 2   
     5     2    36 1   
     6     3     4 ar  
     7     3    12 1   
     8     3    14 ar  
     9     4     5 1   
    10     4    16 ar  
    11     5     6 1   
    12     5    24 1   
    13     5    25 1   
    14     6    11 2   
    15     6    35 1   
    16     7    19 ar  
    17     7    26 1   
    18     8    21 ar  
    19     8    22 ar  
    20     8    27 1   
    21     9    20 ar  
    22     9    21 ar  
    23     9    28 1   
    24    10    19 ar  
    25    10    20 ar  
    26    10    22 ar  
    27    13    14 1   
    28    13    29 1   
    29    14    15 ar  
    30    15    17 ar  
    31    15    30 1   
    32    16    17 ar  
    33    16    31 1   
    34    17    18 1   
    35    19    35 1   
    36    20    32 1   
    37    21    33 1   
    38    22    23 ar  
    39    23    34 1   
    40    35    37 1   
@<TRIPOS>SUBSTRUCTURE
     1 OJ9         1 TEMP              0 ****  ****    0 ROOT
