@<TRIPOS>MOLECULE
OJ9
   37    40     1     0     0
SMALL
No Charge or Current Charge


@<TRIPOS>ATOM
      1 N1           6.7850     0.7520    17.4570 nb         1 OJ9      -0.652000
      2 C4          11.1230     1.2700    25.5240 cc         1 OJ9      -0.058900
      3 C5          10.7080    -0.0820    23.8330 ca         1 OJ9       0.079100
      4 C6          10.0800    -0.9180    22.8920 ca         1 OJ9      -0.055300
      5 C7           8.5790    -1.1890    22.9370 c3         1 OJ9      -0.101100
      6 C8           7.8220    -0.1690    22.0800 c          1 OJ9       0.597100
      7 C10          7.3450     0.1240    18.5140 ca         1 OJ9       0.303900
      8 C13          3.6000     1.8670    18.9770 ca         1 OJ9      -0.086000
      9 C15          3.4620     1.1180    21.2860 ca         1 OJ9      -0.094000
     10 C17          5.4580     0.6130    19.9650 ca         1 OJ9      -0.002000
     11 O1           7.5900     0.9700    22.4690 o          1 OJ9      -0.558100
     12 O           10.0930     0.5740    24.8840 os         1 OJ9      -0.180200
     13 C3          12.3190     1.0350    24.8730 cd         1 OJ9      -0.231200
     14 C2          12.0560     0.1610    23.7780 ca         1 OJ9      -0.100800
     15 C1          12.8880    -0.3940    22.8000 ca         1 OJ9      -0.046000
     16 C18         10.8940    -1.4960    21.8870 ca         1 OJ9      -0.076000
     17 C           12.2850    -1.2350    21.8430 ca         1 OJ9       0.105000
     18 Cl          13.2690    -1.9670    20.5810 cl         1 OJ9      -0.211000
     19 C9           6.7430     0.0400    19.7880 ca         1 OJ9      -0.073000
     20 C16          4.7330     0.5260    21.1750 ca         1 OJ9      -0.084000
     21 C14          2.8990     1.7920    20.1910 ca         1 OJ9      -0.106000
     22 C12          4.8730     1.2740    18.8610 ca         1 OJ9      -0.090000
     23 C11          5.5720     1.3220    17.6390 ca         1 OJ9       0.356900
     24 H2           8.2190    -1.1160    23.9700 hc         1 OJ9       0.070700
     25 H3           8.3890    -2.2020    22.5610 hc         1 OJ9       0.070700
     26 H4           8.3270    -0.3170    18.3400 h4         1 OJ9       0.020100
     27 H5           3.1530     2.3800    18.1280 ha         1 OJ9       0.118000
     28 H6           2.9120     1.0490    22.2220 ha         1 OJ9       0.116000
     29 H7          13.2850     1.4490    25.1540 ha         1 OJ9       0.217000
     30 H8          13.9540    -0.1860    22.7770 ha         1 OJ9       0.138000
     31 H9          10.4540    -2.1480    21.1370 ha         1 OJ9       0.130000
     32 H11          5.1330    -0.0040    22.0340 ha         1 OJ9       0.123000
     33 H12          1.9150     2.2480    20.2800 ha         1 OJ9       0.117000
     34 H13          5.1430     1.8220    16.7710 h4         1 OJ9       0.021100
     35 N            7.4540    -0.6260    20.8230 ns         1 OJ9      -0.173000
     36 H1          10.8700     1.8680    26.3950 h4         1 OJ9       0.240000
     37 H10          7.7620    -1.5640    20.5960 hn         1 OJ9       0.154000
@<TRIPOS>BOND
     1     1     7 ar  
     2     1    23 ar  
     3     2    12 1   
     4     2    13 2   
     5     2    36 1   
     6     3     4 ar  
     7     3    12 1   
     8     3    14 ar  
     9     4     5 1   
    10     4    16 ar  
    11     5     6 1   
    12     5    24 1   
    13     5    25 1   
    14     6    11 2   
    15     6    35 1   
    16     7    19 ar  
    17     7    26 1   
    18     8    21 ar  
    19     8    22 ar  
    20     8    27 1   
    21     9    20 ar  
    22     9    21 ar  
    23     9    28 1   
    24    10    19 ar  
    25    10    20 ar  
    26    10    22 ar  
    27    13    14 1   
    28    13    29 1   
    29    14    15 ar  
    30    15    17 ar  
    31    15    30 1   
    32    16    17 ar  
    33    16    31 1   
    34    17    18 1   
    35    19    35 1   
    36    20    32 1   
    37    21    33 1   
    38    22    23 ar  
    39    23    34 1   
    40    35    37 1   
@<TRIPOS>SUBSTRUCTURE
     1 OJ9         1 TEMP              0 ****  ****    0 ROOT
