@<TRIPOS>MOLECULE
OJA
   72    76     1     0     0
SMALL
No Charge or Current Charge


@<TRIPOS>ATOM
      1 C01         -7.4630     4.6300     0.0990 c3         1 OJA      -0.091100
      2 C02         -7.8230     3.3120     0.8320 c3         1 OJA       0.184500
      3 C03         -9.1880     3.4940     1.5450 c3         1 OJA      -0.091100
      4 N04         -7.7820     2.1110    -0.0620 n3         1 OJA      -0.712600
      5 C05         -8.1520     0.8270     0.6290 c6         1 OJA       0.127800
      6 C06         -8.1020    -0.4190    -0.3170 c6         1 OJA       0.161300
      7 N07         -6.7740    -0.5900    -0.9810 n3         1 OJA      -0.713600
      8 C08         -5.7120    -1.0560    -0.0400 c3         1 OJA       0.162800
      9 C09         -4.3530    -1.4300    -0.6980 c3         1 OJA       0.161800
     10 N10         -3.3940    -1.9730     0.2970 n7         1 OJA      -0.869400
     11 C11         -2.1020    -2.4920    -0.2020 c6         1 OJA       0.177500
     12 C12         -1.3760    -3.2680     0.9190 c6         1 OJA      -0.098900
     13 C13         -0.0120    -3.8070     0.4310 c6         1 OJA       0.204300
     14 N14          0.8330    -2.7070    -0.1110 nh         1 OJA      -0.794400
     15 C15          0.1760    -1.9230    -1.1930 c6         1 OJA       0.204300
     16 C16         -1.1850    -1.3590    -0.7250 c6         1 OJA      -0.098900
     17 C17          2.2450    -2.7780    -0.0570 ca         1 OJA       0.303000
     18 C18          2.9170    -4.0140    -0.0960 ca         1 OJA      -0.168000
     19 C19          4.3190    -4.0620    -0.0420 ca         1 OJA      -0.078000
     20 C20          5.0610    -2.8740     0.0510 ca         1 OJA      -0.123000
     21 C21          4.4100    -1.6220     0.0890 ca         1 OJA      -0.010800
     22 C22          3.0000    -1.5940     0.0370 ca         1 OJA      -0.153000
     23 C23          5.1610    -0.3630     0.1910 cc         1 OJA       0.000700
     24 C24          6.5340    -0.2260     0.0370 cd         1 OJA      -0.225200
     25 C25          6.8990     1.1600     0.1770 ca         1 OJA      -0.076800
     26 C26          8.1390     1.8080     0.1110 ca         1 OJA      -0.102000
     27 C27          8.1470     3.2060     0.2950 ca         1 OJA       0.137000
     28 F28          9.3180     3.8800     0.2410 f          1 OJA      -0.187000
     29 C29          6.9440     3.9140     0.5350 ca         1 OJA      -0.130000
     30 C30          5.7110     3.2260     0.5930 ca         1 OJA      -0.101000
     31 C31          5.7300     1.8370     0.4080 ca         1 OJA      -0.062200
     32 N32          4.6730     0.9380     0.4160 na         1 OJA      -0.214700
     33 C33         -6.4490     0.6760    -1.7100 c6         1 OJA       0.161300
     34 C34         -6.4720     1.9340    -0.7800 c6         1 OJA       0.127800
     35 H011        -8.1010     4.7730    -0.7810 hc         1 OJA       0.038200
     36 H012        -7.5970     5.4930     0.7610 hc         1 OJA       0.038200
     37 H013        -6.4150     4.6390    -0.2220 hc         1 OJA       0.038200
     38 H02         -7.0720     3.1800     1.6240 h1         1 OJA       0.016700
     39 H031       -10.0080     3.5170     0.8170 hc         1 OJA       0.038200
     40 H032        -9.3780     2.6870     2.2620 hc         1 OJA       0.038200
     41 H033        -9.2090     4.4320     2.1130 hc         1 OJA       0.038200
     42 H051        -7.4840     0.6530     1.4850 h1         1 OJA       0.034200
     43 H052        -9.1740     0.8820     1.0290 h1         1 OJA       0.034200
     44 H341        -6.2570     2.8040    -1.4150 h1         1 OJA       0.034200
     45 H342        -5.6490     1.8580    -0.0540 h1         1 OJA       0.034200
     46 H061        -8.3660    -1.3180     0.2590 h1         1 OJA       0.057950
     47 H062        -8.8860    -0.2990    -1.0800 h1         1 OJA       0.057950
     48 H081        -5.5220    -0.2950     0.7290 h1         1 OJA       0.036200
     49 H082        -6.0740    -1.9500     0.4870 h1         1 OJA       0.036200
     50 H331        -5.4700     0.6120    -2.2060 h1         1 OJA       0.057950
     51 H332        -7.1850     0.8370    -2.5120 h1         1 OJA       0.057950
     52 H091        -4.5410    -2.1730    -1.4840 h1         1 OJA       0.036200
     53 H092        -3.9310    -0.5380    -1.1770 h1         1 OJA       0.036200
     54 H10         -3.2080    -1.2520     1.0040 hn         1 OJA       0.407000
     55 H11         -2.2980    -3.1940    -1.0280 h1         1 OJA       0.058700
     56 H121        -1.2180    -2.6150     1.7890 hc         1 OJA       0.053200
     57 H122        -1.9980    -4.1050     1.2620 hc         1 OJA       0.053200
     58 H161        -1.6590    -0.8350    -1.5650 hc         1 OJA       0.053200
     59 H162        -1.0190    -0.6120     0.0630 hc         1 OJA       0.053200
     60 H131         0.4930    -4.2950     1.2780 h1         1 OJA       0.037700
     61 H132        -0.1770    -4.5720    -0.3420 h1         1 OJA       0.037700
     62 H151         0.8140    -1.0860    -1.5120 h1         1 OJA       0.037700
     63 H152         0.0200    -2.5640    -2.0730 h1         1 OJA       0.037700
     64 H18          2.3600    -4.9420    -0.1790 ha         1 OJA       0.115000
     65 H22          2.4770    -0.6440     0.0750 ha         1 OJA       0.111000
     66 H19          4.8320    -5.0210    -0.0720 ha         1 OJA       0.113000
     67 H20          6.1440    -2.9400     0.1000 ha         1 OJA       0.122000
     68 H24          7.2320    -1.0300    -0.1750 ha         1 OJA       0.209000
     69 H32          3.7000     1.1820     0.5630 hn         1 OJA       0.350000
     70 H26          9.0580     1.2590    -0.0730 ha         1 OJA       0.133000
     71 H29          6.9720     4.9920     0.6730 ha         1 OJA       0.129000
     72 H30          4.7800     3.7580     0.7760 ha         1 OJA       0.116000
@<TRIPOS>BOND
     1     1     2 1   
     2     1    35 1   
     3     1    36 1   
     4     1    37 1   
     5     2     3 1   
     6     2     4 1   
     7     2    38 1   
     8     3    39 1   
     9     3    40 1   
    10     3    41 1   
    11     4     5 1   
    12     4    34 1   
    13     5     6 1   
    14     5    42 1   
    15     5    43 1   
    16     6     7 1   
    17     6    46 1   
    18     6    47 1   
    19     7     8 1   
    20     7    33 1   
    21     8     9 1   
    22     8    48 1   
    23     8    49 1   
    24     9    10 1   
    25     9    52 1   
    26     9    53 1   
    27    10    11 1   
    28    10    54 1   
    29    11    12 1   
    30    11    16 1   
    31    11    55 1   
    32    12    13 1   
    33    12    56 1   
    34    12    57 1   
    35    13    14 1   
    36    13    60 1   
    37    13    61 1   
    38    14    15 1   
    39    14    17 1   
    40    15    16 1   
    41    15    62 1   
    42    15    63 1   
    43    16    58 1   
    44    16    59 1   
    45    17    18 ar  
    46    17    22 ar  
    47    18    19 ar  
    48    18    64 1   
    49    19    20 ar  
    50    19    66 1   
    51    20    21 ar  
    52    20    67 1   
    53    21    22 ar  
    54    21    23 1   
    55    22    65 1   
    56    23    24 2   
    57    23    32 1   
    58    24    25 1   
    59    24    68 1   
    60    25    26 ar  
    61    25    31 ar  
    62    26    27 ar  
    63    26    70 1   
    64    27    28 1   
    65    27    29 ar  
    66    29    30 ar  
    67    29    71 1   
    68    30    31 ar  
    69    30    72 1   
    70    31    32 1   
    71    32    69 1   
    72    33    34 1   
    73    33    50 1   
    74    33    51 1   
    75    34    44 1   
    76    34    45 1   
@<TRIPOS>SUBSTRUCTURE
     1 OJA         1 TEMP              0 ****  ****    0 ROOT
