@<TRIPOS>MOLECULE
OJA
   72    76     1     0     0
SMALL
bcc


@<TRIPOS>ATOM
      1 C01         -7.9790     4.4130     0.7740 c3         1 OJA      -0.091100
      2 C02         -8.3070     2.9600     1.1100 c3         1 OJA       0.184500
      3 C03         -9.8020     2.8520     1.4030 c3         1 OJA      -0.091100
      4 N04         -7.9060     2.0570     0.0280 n3         1 OJA      -0.712600
      5 C05         -8.2230     0.6650     0.3200 c6         1 OJA       0.127800
      6 C06         -7.8240    -0.2440    -0.8360 c6         1 OJA       0.161300
      7 N07         -6.4180    -0.1640    -1.1920 n3         1 OJA      -0.713600
      8 C08         -5.5470    -0.8330    -0.2400 c3         1 OJA       0.162800
      9 C09         -4.1620    -1.1150    -0.8060 c3         1 OJA       0.161800
     10 N10         -3.3820    -1.8440     0.1770 n7         1 OJA      -0.814200
     11 C11         -2.0490    -2.2320    -0.2480 c6         1 OJA       0.177500
     12 C12         -1.4310    -3.1500     0.7960 c6         1 OJA      -0.098900
     13 C13         -0.0260    -3.5930     0.4170 c6         1 OJA       0.204300
     14 N14          0.8340    -2.4510     0.1700 nh         1 OJA      -0.656000
     15 C15          0.3030    -1.5650    -0.8610 c6         1 OJA       0.204300
     16 C16         -1.0890    -1.0690    -0.5050 c6         1 OJA      -0.098900
     17 C17          2.2110    -2.6540     0.1950 ca         1 OJA       0.164600
     18 C18          2.7840    -3.9260     0.3150 ca         1 OJA      -0.186000
     19 C19          4.1630    -4.0760     0.3960 ca         1 OJA      -0.096000
     20 C20          5.0100    -2.9860     0.3340 ca         1 OJA      -0.141000
     21 C21          4.4610    -1.7070     0.2040 ca         1 OJA      -0.010800
     22 C22          3.0800    -1.5540     0.1470 ca         1 OJA      -0.171000
     23 C23          5.3420    -0.5430     0.1510 cc         1 OJA       0.000700
     24 C24          6.6030    -0.3840     0.6730 cd         1 OJA      -0.175200
     25 C25          7.0260     0.9370     0.3540 ca         1 OJA      -0.076800
     26 C26          8.1920     1.6710     0.6120 ca         1 OJA      -0.120000
     27 C27          8.2490     2.9530     0.1250 ca         1 OJA       0.101900
     28 F28          9.3600     3.6860     0.3520 f          1 OJA      -0.151900
     29 C29          7.2160     3.5500    -0.6030 ca         1 OJA      -0.148000
     30 C30          6.0590     2.8400    -0.8590 ca         1 OJA      -0.119000
     31 C31          5.9730     1.5390    -0.3710 ca         1 OJA      -0.062200
     32 N32          4.9670     0.6210    -0.4660 na         1 OJA      -0.164400
     33 C33         -6.1000     1.2340    -1.4310 c6         1 OJA       0.161300
     34 C34         -6.4910     2.1710    -0.2930 c6         1 OJA       0.127800
     35 H011        -8.4140     4.6930    -0.1880 hc         1 OJA       0.038200
     36 H012        -8.3980     5.0710     1.5360 hc         1 OJA       0.038200
     37 H013        -6.9090     4.6140     0.7360 hc         1 OJA       0.038200
     38 H02         -7.7650     2.6970     2.0380 h1         1 OJA       0.016700
     39 H031       -10.3860     3.0110     0.4940 hc         1 OJA       0.038200
     40 H032       -10.0890     1.8900     1.8260 hc         1 OJA       0.038200
     41 H033       -10.0910     3.6140     2.1270 hc         1 OJA       0.038200
     42 H051        -7.7340     0.3270     1.2520 h1         1 OJA       0.034200
     43 H052        -9.2970     0.5520     0.4710 h1         1 OJA       0.034200
     44 H341        -6.2630     3.1850    -0.6210 h1         1 OJA       0.034200
     45 H342        -5.8580     1.9800     0.5920 h1         1 OJA       0.034200
     46 H061        -8.0810    -1.2760    -0.5890 h1         1 OJA       0.057950
     47 H062        -8.4150     0.0340    -1.7150 h1         1 OJA       0.057950
     48 H081        -5.4320    -0.2850     0.7090 h1         1 OJA       0.036200
     49 H082        -6.0050    -1.7900     0.0190 h1         1 OJA       0.036200
     50 H331        -5.0360     1.3510    -1.6390 h1         1 OJA       0.057950
     51 H332        -6.6310     1.5500    -2.3360 h1         1 OJA       0.057950
     52 H091        -4.2590    -1.7340    -1.7030 h1         1 OJA       0.036200
     53 H092        -3.6860    -0.1760    -1.1240 h1         1 OJA       0.036200
     54 H10         -3.3050    -1.2850     1.0210 hn         1 OJA       0.351800
     55 H11         -2.1590    -2.7980    -1.1830 h1         1 OJA       0.058700
     56 H121        -1.3910    -2.6270     1.7580 hc         1 OJA       0.053200
     57 H122        -2.0550    -4.0350     0.9340 hc         1 OJA       0.053200
     58 H161        -1.4490    -0.4380    -1.3200 hc         1 OJA       0.053200
     59 H162        -1.0370    -0.4440     0.3930 hc         1 OJA       0.053200
     60 H131         0.3840    -4.1770     1.2410 h1         1 OJA       0.037700
     61 H132        -0.0700    -4.2580    -0.4600 h1         1 OJA       0.037700
     62 H151         0.9630    -0.7100    -0.9920 h1         1 OJA       0.037700
     63 H152         0.2690    -2.0900    -1.8280 h1         1 OJA       0.037700
     64 H18          2.1690    -4.8140     0.3310 ha         1 OJA       0.133000
     65 H22          2.6630    -0.5550     0.1160 ha         1 OJA       0.129000
     66 H19          4.5770    -5.0720     0.4850 ha         1 OJA       0.131000
     67 H20          6.0830    -3.1210     0.3650 ha         1 OJA       0.140000
     68 H24          7.1470    -1.1160     1.2480 ha         1 OJA       0.159000
     69 H32          4.1270     0.7450    -1.0070 hn         1 OJA       0.299700
     70 H26          9.0190     1.2470     1.1680 ha         1 OJA       0.151000
     71 H29          7.3290     4.5640    -0.9600 ha         1 OJA       0.147000
     72 H30          5.2500     3.2880    -1.4200 ha         1 OJA       0.134000
@<TRIPOS>BOND
     1     1     2 1   
     2     1    35 1   
     3     1    36 1   
     4     1    37 1   
     5     2     3 1   
     6     2     4 1   
     7     2    38 1   
     8     3    39 1   
     9     3    40 1   
    10     3    41 1   
    11     4     5 1   
    12     4    34 1   
    13     5     6 1   
    14     5    42 1   
    15     5    43 1   
    16     6     7 1   
    17     6    46 1   
    18     6    47 1   
    19     7     8 1   
    20     7    33 1   
    21     8     9 1   
    22     8    48 1   
    23     8    49 1   
    24     9    10 1   
    25     9    52 1   
    26     9    53 1   
    27    10    11 1   
    28    10    54 1   
    29    11    12 1   
    30    11    16 1   
    31    11    55 1   
    32    12    13 1   
    33    12    56 1   
    34    12    57 1   
    35    13    14 1   
    36    13    60 1   
    37    13    61 1   
    38    14    15 1   
    39    14    17 1   
    40    15    16 1   
    41    15    62 1   
    42    15    63 1   
    43    16    58 1   
    44    16    59 1   
    45    17    18 ar  
    46    17    22 ar  
    47    18    19 ar  
    48    18    64 1   
    49    19    20 ar  
    50    19    66 1   
    51    20    21 ar  
    52    20    67 1   
    53    21    22 ar  
    54    21    23 1   
    55    22    65 1   
    56    23    24 2   
    57    23    32 1   
    58    24    25 1   
    59    24    68 1   
    60    25    26 ar  
    61    25    31 ar  
    62    26    27 ar  
    63    26    70 1   
    64    27    28 1   
    65    27    29 ar  
    66    29    30 ar  
    67    29    71 1   
    68    30    31 ar  
    69    30    72 1   
    70    31    32 1   
    71    32    69 1   
    72    33    34 1   
    73    33    50 1   
    74    33    51 1   
    75    34    44 1   
    76    34    45 1   
@<TRIPOS>SUBSTRUCTURE
     1 OJA         1 TEMP              0 ****  ****    0 ROOT
