@<TRIPOS>MOLECULE
OJD
   29    30     1     0     0
SMALL
abcg2


@<TRIPOS>ATOM
      1 O01         -5.1170     0.4640     0.6920 o          1 OJD      -0.554000
      2 C02         -3.9900     0.1850     0.3130 c          1 OJD       0.561000
      3 C03         -2.7110     0.9260     0.6450 c5         1 OJD      -0.170400
      4 C04         -1.6920     0.3970    -0.3630 c5         1 OJD      -0.078700
      5 C05         -0.2550     0.3980     0.1330 c3         1 OJD      -0.067400
      6 C06          0.7400    -0.1130    -0.9100 c3         1 OJD      -0.031100
      7 C07          2.1550    -0.0700    -0.4030 ca         1 OJD      -0.082300
      8 C08          2.6550    -1.0890     0.4060 ca         1 OJD      -0.106500
      9 C09          3.9470    -1.0300     0.9100 ca         1 OJD      -0.108000
     10 C10          4.7630     0.0540     0.6130 ca         1 OJD      -0.110000
     11 C11          4.2770     1.0750    -0.1920 ca         1 OJD      -0.108000
     12 C12          2.9830     1.0110    -0.6930 ca         1 OJD      -0.106500
     13 C13         -2.2320    -1.0010    -0.6990 c5         1 OJD       0.101000
     14 N14         -3.6520    -0.8570    -0.4650 ns         1 OJD      -0.517900
     15 H031        -2.8510     2.0060     0.6070 hc         1 OJD       0.076700
     16 H032        -2.4300     0.6690     1.6730 hc         1 OJD       0.076700
     17 H14         -4.3220    -1.5600    -0.7370 hn         1 OJD       0.326500
     18 H04         -1.7550     1.0110    -1.2680 hc         1 OJD       0.060700
     19 H051         0.0250     1.4140     0.4270 hc         1 OJD       0.049200
     20 H052        -0.1860    -0.2180     1.0360 hc         1 OJD       0.049200
     21 H131        -2.0320    -1.2960    -1.7290 h1         1 OJD       0.044200
     22 H132        -1.7970    -1.7630    -0.0420 h1         1 OJD       0.044200
     23 H061         0.4830    -1.1370    -1.1960 hc         1 OJD       0.046700
     24 H062         0.6590     0.4960    -1.8150 hc         1 OJD       0.046700
     25 H08          2.0260    -1.9400     0.6440 ha         1 OJD       0.109500
     26 H12          2.6110     1.8120    -1.3220 ha         1 OJD       0.109500
     27 H09          4.3180    -1.8340     1.5340 ha         1 OJD       0.112500
     28 H10          5.7720     0.1000     1.0030 ha         1 OJD       0.113000
     29 H11          4.9070     1.9210    -0.4350 ha         1 OJD       0.112500
@<TRIPOS>BOND
     1     1     2 2   
     2     2     3 1   
     3     2    14 1   
     4     3     4 1   
     5     3    15 1   
     6     3    16 1   
     7     4     5 1   
     8     4    13 1   
     9     4    18 1   
    10     5     6 1   
    11     5    19 1   
    12     5    20 1   
    13     6     7 1   
    14     6    23 1   
    15     6    24 1   
    16     7     8 ar  
    17     7    12 ar  
    18     8     9 ar  
    19     8    25 1   
    20     9    10 ar  
    21     9    27 1   
    22    10    11 ar  
    23    10    28 1   
    24    11    12 ar  
    25    11    29 1   
    26    12    26 1   
    27    13    14 1   
    28    13    21 1   
    29    13    22 1   
    30    14    17 1   
@<TRIPOS>SUBSTRUCTURE
     1 OJD         1 TEMP              0 ****  ****    0 ROOT
