@<TRIPOS>MOLECULE
OJD
   29    30     1     0     0
SMALL
No Charge or Current Charge


@<TRIPOS>ATOM
      1 O01         -5.1460     0.8730     0.0780 o          1 OJD      -0.554000
      2 C02         -4.0670     0.3200     0.2050 c          1 OJD       0.561000
      3 C03         -2.7480     0.8710     0.7260 c5         1 OJD      -0.170400
      4 C04         -1.7300     0.3340    -0.3110 c5         1 OJD      -0.078700
      5 C05         -0.2530     0.3750     0.1550 c3         1 OJD      -0.067400
      6 C06          0.7560    -0.1670    -0.8810 c3         1 OJD      -0.031100
      7 C07          2.1920    -0.0730    -0.3830 ca         1 OJD      -0.082300
      8 C08          2.7540    -1.1240     0.3670 ca         1 OJD      -0.106500
      9 C09          4.0780    -1.0360     0.8310 ca         1 OJD      -0.108000
     10 C10          4.8470     0.1060     0.5490 ca         1 OJD      -0.110000
     11 C11          4.2910     1.1590    -0.1960 ca         1 OJD      -0.108000
     12 C12          2.9670     1.0700    -0.6610 ca         1 OJD      -0.106500
     13 C13         -2.3110    -1.0980    -0.5500 c5         1 OJD       0.101000
     14 N14         -3.7500    -0.8600    -0.4090 ns         1 OJD      -0.517900
     15 H031        -2.7770     1.9590     0.8420 hc         1 OJD       0.076700
     16 H032        -2.5420     0.3950     1.6910 hc         1 OJD       0.076700
     17 H14         -4.4770    -1.3410    -0.9270 hn         1 OJD       0.326500
     18 H04         -1.7970     0.9230    -1.2350 hc         1 OJD       0.060700
     19 H051         0.0200     1.4100     0.3960 hc         1 OJD       0.049200
     20 H052        -0.1420    -0.1960     1.0850 hc         1 OJD       0.049200
     21 H131        -2.0410    -1.4890    -1.5400 h1         1 OJD       0.044200
     22 H132        -1.9540    -1.8090     0.2080 h1         1 OJD       0.044200
     23 H061         0.5120    -1.2100    -1.1170 hc         1 OJD       0.046700
     24 H062         0.6450     0.3920    -1.8190 hc         1 OJD       0.046700
     25 H08          2.1640    -2.0100     0.5910 ha         1 OJD       0.109500
     26 H12          2.5430     1.8910    -1.2350 ha         1 OJD       0.109500
     27 H09          4.5070    -1.8510     1.4100 ha         1 OJD       0.112500
     28 H10          5.8720     0.1750     0.9090 ha         1 OJD       0.113000
     29 H11          4.8850     2.0440    -0.4140 ha         1 OJD       0.112500
@<TRIPOS>BOND
     1     1     2 2   
     2     2     3 1   
     3     2    14 1   
     4     3     4 1   
     5     3    15 1   
     6     3    16 1   
     7     4     5 1   
     8     4    13 1   
     9     4    18 1   
    10     5     6 1   
    11     5    19 1   
    12     5    20 1   
    13     6     7 1   
    14     6    23 1   
    15     6    24 1   
    16     7     8 ar  
    17     7    12 ar  
    18     8     9 ar  
    19     8    25 1   
    20     9    10 ar  
    21     9    27 1   
    22    10    11 ar  
    23    10    28 1   
    24    11    12 ar  
    25    11    29 1   
    26    12    26 1   
    27    13    14 1   
    28    13    21 1   
    29    13    22 1   
    30    14    17 1   
@<TRIPOS>SUBSTRUCTURE
     1 OJD         1 TEMP              0 ****  ****    0 ROOT
