@<TRIPOS>MOLECULE
OJH
   56    59     1     0     0
SMALL
No Charge or Current Charge


@<TRIPOS>ATOM
      1 C13        -23.4350    46.9760     8.5880 ca         1 OJH      -0.023000
      2 C15        -25.0660    48.7640     7.7100 c          1 OJH       0.595100
      3 C17        -24.9860    50.1540     7.0480 c3         1 OJH       0.029000
      4 C22        -28.3170    51.3180     5.6640 c5         1 OJH       0.074400
      5 C24        -29.5610    50.3800     5.5600 cx         1 OJH      -0.138700
      6 C26        -29.8970    49.5790     6.8040 cx         1 OJH      -0.118900
      7 C02        -24.6890    43.8890    13.7420 c5         1 OJH      -0.070700
      8 C04        -25.7670    42.7680    13.7530 c5         1 OJH      -0.095400
      9 C05        -25.9310    42.3940    12.2480 c5         1 OJH       0.235800
     10 N06        -25.0140    43.3130    11.5410 n3         1 OJH      -0.817500
     11 C07        -24.9600    44.5320    12.3640 c5         1 OJH       0.233800
     12 S08        -25.1040    43.4270     9.8510 sy         1 OJH       1.200600
     13 O09        -26.4560    43.9010     9.5330 o          1 OJH      -0.527000
     14 O10        -24.5910    42.1520     9.3360 o          1 OJH      -0.527000
     15 C11        -23.8890    44.7230     9.4720 ca         1 OJH      -0.213500
     16 C12        -24.3400    45.9350     8.8950 ca         1 OJH      -0.070000
     17 N14        -23.8240    48.2150     8.0040 ns         1 OJH      -0.144000
     18 O16        -26.1360    48.2140     7.9530 o          1 OJH      -0.574100
     19 N18        -26.3050    50.7660     6.7210 n          1 OJH      -0.376400
     20 C19        -26.9650    51.6020     7.5810 c          1 OJH       0.622000
     21 O20        -26.5780    51.9760     8.6730 o          1 OJH      -0.541000
     22 N21        -28.1460    51.9410     6.9990 ns         1 OJH      -0.510900
     23 C25        -30.7680    50.7510     6.3990 cx         1 OJH      -0.118900
     24 C27        -26.9770    50.4990     5.5430 c          1 OJH       0.572000
     25 O28        -26.5780    49.7670     4.6460 o          1 OJH      -0.496000
     26 C29        -22.0690    46.7920     8.8600 ca         1 OJH      -0.127000
     27 C30        -21.6110    45.5990     9.4380 ca         1 OJH      -0.071000
     28 C31        -22.5080    44.5640     9.7490 ca         1 OJH       0.042100
     29 Br1        -21.7720    42.9880    10.5720 br         1 OJH      -0.052100
     30 H1         -24.3910    50.0510     6.1320 h1         1 OJH       0.089700
     31 H2         -24.4300    50.8130     7.7260 h1         1 OJH       0.089700
     32 H3         -29.7490    49.8950     4.6040 hc         1 OJH       0.098700
     33 H4         -30.3020    48.5800     6.6630 hc         1 OJH       0.077950
     34 H5         -29.2800    49.6850     7.6930 hc         1 OJH       0.077950
     35 H9         -23.6850    43.4470    13.7500 hc         1 OJH       0.057700
     36 H10        -26.7190    43.1260    14.1610 hc         1 OJH       0.059200
     37 H11        -25.4590    41.9090    14.3590 hc         1 OJH       0.059200
     38 H12        -25.6730    41.3430    12.0580 h1         1 OJH       0.056700
     39 H13        -26.9740    42.5420    11.9320 h1         1 OJH       0.056700
     40 H14        -24.1490    45.2140    12.0740 h1         1 OJH       0.059700
     41 H15        -25.9080    45.0900    12.3420 h1         1 OJH       0.059700
     42 H16        -25.3990    46.0500     8.6840 ha         1 OJH       0.154000
     43 H17        -23.0420    48.8070     7.7550 hn         1 OJH       0.155000
     44 H18        -28.7820    52.5670     7.4770 hn         1 OJH       0.349500
     45 H19        -29.2550    53.0360     4.6760 hc         1 OJH       0.055367
     46 H20        -27.4850    53.0590     4.6160 hc         1 OJH       0.055367
     47 H21        -28.3920    51.9580     3.5670 hc         1 OJH       0.055367
     48 H22        -30.7400    51.6460     7.0140 hc         1 OJH       0.077950
     49 H23        -31.7510    50.5270     5.9890 hc         1 OJH       0.077950
     50 H24        -21.3550    47.5800     8.6290 ha         1 OJH       0.116000
     51 H25        -20.5510    45.4770     9.6510 ha         1 OJH       0.133000
     52 C23        -28.3640    52.4050     4.5680 c3         1 OJH      -0.096100
     53 C01        -24.7540    44.8590    14.9420 c3         1 OJH      -0.086100
     54 H6         -23.9850    45.6360    14.8610 hc         1 OJH       0.039700
     55 H7         -25.7290    45.3570    15.0000 hc         1 OJH       0.039700
     56 H8         -24.5920    44.3260    15.8870 hc         1 OJH       0.039700
@<TRIPOS>BOND
     1     1    16 ar  
     2     1    17 1   
     3     1    26 ar  
     4     2     3 1   
     5     2    17 1   
     6     2    18 2   
     7     3    19 1   
     8     3    30 1   
     9     3    31 1   
    10     4     5 1   
    11     4    22 1   
    12     4    24 1   
    13     4    52 1   
    14     5     6 1   
    15     5    23 1   
    16     5    32 1   
    17     6    23 1   
    18     6    33 1   
    19     6    34 1   
    20     7     8 1   
    21     7    11 1   
    22     7    35 1   
    23     7    53 1   
    24     8     9 1   
    25     8    36 1   
    26     8    37 1   
    27     9    10 1   
    28     9    38 1   
    29     9    39 1   
    30    10    11 1   
    31    10    12 1   
    32    11    40 1   
    33    11    41 1   
    34    12    13 2   
    35    12    14 2   
    36    12    15 1   
    37    15    16 ar  
    38    15    28 ar  
    39    16    42 1   
    40    17    43 1   
    41    19    20 1   
    42    19    24 1   
    43    20    21 2   
    44    20    22 1   
    45    22    44 1   
    46    23    48 1   
    47    23    49 1   
    48    24    25 2   
    49    26    27 ar  
    50    26    50 1   
    51    27    28 ar  
    52    27    51 1   
    53    28    29 1   
    54    45    52 1   
    55    46    52 1   
    56    47    52 1   
    57    53    54 1   
    58    53    55 1   
    59    53    56 1   
@<TRIPOS>SUBSTRUCTURE
     1 OJH         1 TEMP              0 ****  ****    0 ROOT
