@<TRIPOS>MOLECULE
OJH
   56    59     1     0     0
SMALL
bcc


@<TRIPOS>ATOM
      1 C13        -22.6730    46.6900     8.3010 ca         1 OJH       0.069600
      2 C15        -24.4650    48.3620     7.9370 c          1 OJH       0.662100
      3 C17        -24.7290    49.6040     7.0950 c3         1 OJH       0.029000
      4 C22        -28.3690    50.2920     7.3320 c5         1 OJH       0.074400
      5 C24        -29.2950    49.1690     7.7660 cx         1 OJH      -0.138700
      6 C26        -28.9360    48.2750     8.9080 cx         1 OJH      -0.118900
      7 C02        -26.9770    45.4830    11.7510 c5         1 OJH      -0.070700
      8 C04        -27.1610    45.1180    10.2790 c5         1 OJH      -0.095400
      9 C05        -26.1490    44.0040    10.0400 c5         1 OJH       0.235800
     10 N06        -25.0880    44.3350    11.0050 n3         1 OJH      -0.817500
     11 C07        -25.4630    45.4020    11.9370 c5         1 OJH       0.233800
     12 S08        -23.6000    43.7250    10.9010 sy         1 OJH       1.342200
     13 O09        -23.6980    42.4100    10.2900 o          1 OJH      -0.597800
     14 O10        -22.9510    43.8860    12.1920 o          1 OJH      -0.597800
     15 C11        -22.6960    44.7600     9.7470 ca         1 OJH      -0.213500
     16 C12        -23.3420    45.8570     9.1960 ca         1 OJH      -0.088000
     17 N14        -23.2500    47.8080     7.7030 ns         1 OJH      -0.470100
     18 O16        -25.2820    47.9440     8.7300 o          1 OJH      -0.574100
     19 N18        -26.0530    50.0900     7.3230 n          1 OJH      -0.510400
     20 C19        -26.3910    50.8730     8.4320 c          1 OJH       0.831500
     21 O20        -25.5890    51.3610     9.1950 o          1 OJH      -0.616500
     22 N21        -27.7340    50.9630     8.4440 ns         1 OJH      -0.577900
     23 C25        -30.0640    49.2520     9.0460 cx         1 OJH      -0.118900
     24 C27        -27.1590    49.6740     6.6420 c          1 OJH       0.714500
     25 O28        -27.1700    48.9450     5.6820 o          1 OJH      -0.571500
     26 C29        -21.3530    46.3920     7.9680 ca         1 OJH      -0.145000
     27 C30        -20.7120    45.2990     8.5190 ca         1 OJH      -0.089000
     28 C31        -21.3760    44.4760     9.4160 ca         1 OJH       0.042100
     29 BR1        -20.4440    43.0130    10.1430 br         1 OJH      -0.052100
     30 H1         -24.6060    49.3760     6.0350 h1         1 OJH       0.089700
     31 H2         -24.0030    50.3810     7.3400 h1         1 OJH       0.089700
     32 H3         -29.8020    48.7020     6.9300 hc         1 OJH       0.098700
     33 H4         -29.1670    47.2220     8.8160 hc         1 OJH       0.077950
     34 H5         -28.0200    48.4850     9.4440 hc         1 OJH       0.077950
     35 H9         -27.4390    44.7010    12.3630 hc         1 OJH       0.057700
     36 H10        -26.9310    45.9800     9.6480 hc         1 OJH       0.059200
     37 H11        -28.1770    44.7990    10.0460 hc         1 OJH       0.059200
     38 H12        -26.5670    43.0210    10.2620 h1         1 OJH       0.056700
     39 H13        -25.7770    43.9940     9.0150 h1         1 OJH       0.056700
     40 H14        -25.1820    45.1550    12.9590 h1         1 OJH       0.059700
     41 H15        -24.9900    46.3530    11.6670 h1         1 OJH       0.059700
     42 H16        -24.3640    46.0660     9.4610 ha         1 OJH       0.172000
     43 H17        -22.6660    48.2740     7.0230 hn         1 OJH       0.321500
     44 H18        -28.2090    51.6300     9.0310 hn         1 OJH       0.349500
     45 H19        -29.9310    51.7200     6.9360 hc         1 OJH       0.055367
     46 H20        -28.4280    52.0620     6.0660 hc         1 OJH       0.055367
     47 H21        -29.4830    50.7430     5.5370 hc         1 OJH       0.055367
     48 H22        -29.9160    50.1040     9.6970 hc         1 OJH       0.077950
     49 H23        -31.0790    48.8740     9.0430 hc         1 OJH       0.077950
     50 H24        -20.8110    47.0210     7.2720 ha         1 OJH       0.134000
     51 H25        -19.6860    45.0980     8.2420 ha         1 OJH       0.151000
     52 C23        -29.0920    51.2670     6.4080 c3         1 OJH      -0.096100
     53 C01        -27.5490    46.8310    12.1480 c3         1 OJH      -0.086100
     54 H6         -27.3870    47.0340    13.2070 hc         1 OJH       0.039700
     55 H7         -27.0810    47.6370    11.5780 hc         1 OJH       0.039700
     56 H8         -28.6230    46.8700    11.9640 hc         1 OJH       0.039700
@<TRIPOS>BOND
     1     1    16 ar  
     2     1    17 1   
     3     1    26 ar  
     4     2     3 1   
     5     2    17 1   
     6     2    18 2   
     7     3    19 1   
     8     3    30 1   
     9     3    31 1   
    10     4     5 1   
    11     4    22 1   
    12     4    24 1   
    13     4    52 1   
    14     5     6 1   
    15     5    23 1   
    16     5    32 1   
    17     6    23 1   
    18     6    33 1   
    19     6    34 1   
    20     7     8 1   
    21     7    11 1   
    22     7    35 1   
    23     7    53 1   
    24     8     9 1   
    25     8    36 1   
    26     8    37 1   
    27     9    10 1   
    28     9    38 1   
    29     9    39 1   
    30    10    11 1   
    31    10    12 1   
    32    11    40 1   
    33    11    41 1   
    34    12    13 2   
    35    12    14 2   
    36    12    15 1   
    37    15    16 ar  
    38    15    28 ar  
    39    16    42 1   
    40    17    43 1   
    41    19    20 1   
    42    19    24 1   
    43    20    21 2   
    44    20    22 1   
    45    22    44 1   
    46    23    48 1   
    47    23    49 1   
    48    24    25 2   
    49    26    27 ar  
    50    26    50 1   
    51    27    28 ar  
    52    27    51 1   
    53    28    29 1   
    54    45    52 1   
    55    46    52 1   
    56    47    52 1   
    57    53    54 1   
    58    53    55 1   
    59    53    56 1   
@<TRIPOS>SUBSTRUCTURE
     1 OJH         1 TEMP              0 ****  ****    0 ROOT
