@<TRIPOS>MOLECULE
OJI
   32    34     1     0     0
SMALL
No Charge or Current Charge


@<TRIPOS>ATOM
      1 N1         106.7430    83.3720    93.4320 na         1 OJI      -0.312300
      2 C2         107.0470    84.7360    93.0050 c5         1 OJI       0.306300
      3 C3         107.6290    86.1280    94.8750 c5         1 OJI       0.090300
      4 C4         108.8020    86.0750    93.8470 c5         1 OJI       0.163300
      5 C5         110.2170    85.9320    94.4750 c3         1 OJI       0.165600
      6 C6         105.5900    82.6610    93.2330 ca         1 OJI       0.162500
      7 O2         106.1140    87.0710    93.2150 oh         1 OJI      -0.702000
      8 N2         106.9990    81.3060    94.4330 nc         1 OJI      -0.533100
      9 N3         104.4510    82.9920    92.5940 nb         1 OJI      -0.254000
     10 O4         111.2510    86.0630    93.4810 oh         1 OJI      -0.701000
     11 N4         103.5540    80.8170    93.1390 nb         1 OJI      -0.258000
     12 C7         107.5670    82.4980    94.1670 cd         1 OJI       0.410700
     13 C8         105.7590    81.4390    93.8340 ca         1 OJI      -0.090600
     14 C1         106.4370    85.8610    93.9170 c5         1 OJI       0.101300
     15 C10        103.4980    82.0430    92.5880 ca         1 OJI       0.392900
     16 C9         104.7050    80.5060    93.7750 ca         1 OJI       0.218900
     17 N5         102.3450    82.3570    91.9480 nv         1 OJI      -1.054900
     18 O1         108.4860    84.9200    93.0310 os         1 OJI      -0.429000
     19 O3         107.4810    87.4020    95.5310 oh         1 OJI      -0.706000
     20 H1         106.6640    84.8290    91.9800 h2         1 OJI       0.130700
     21 H2         107.7190    85.3170    95.6130 h1         1 OJI       0.047700
     22 H3         108.7940    86.9690    93.2080 h1         1 OJI       0.090700
     23 H4         110.2860    84.9570    94.9770 h1         1 OJI       0.026200
     24 H5         110.3380    86.7090    95.2410 h1         1 OJI       0.026200
     25 H6         106.3810    87.7780    93.8570 ho         1 OJI       0.527000
     26 H7         112.1110    85.9090    93.9380 ho         1 OJI       0.507000
     27 H8         108.5610    82.7960    94.4790 h5         1 OJI       0.058800
     28 H9         105.5590    85.4930    94.4670 h1         1 OJI       0.070700
     29 H10        104.7780    79.5200    94.2310 h4         1 OJI       0.036100
     30 H11        102.3370    83.1720    91.3380 hn         1 OJI       0.495000
     31 H12        101.6900    81.6110    91.7260 hn         1 OJI       0.495000
     32 H13        107.9820    87.3630    96.3820 ho         1 OJI       0.518000
@<TRIPOS>BOND
     1     1     2 1   
     2     1     6 1   
     3     1    12 1   
     4     2    14 1   
     5     2    18 1   
     6     2    20 1   
     7     3     4 1   
     8     3    14 1   
     9     3    19 1   
    10     3    21 1   
    11     4     5 1   
    12     4    18 1   
    13     4    22 1   
    14     5    10 1   
    15     5    23 1   
    16     5    24 1   
    17     6     9 ar  
    18     6    13 ar  
    19     7    14 1   
    20     7    25 1   
    21     8    12 2   
    22     8    13 1   
    23     9    15 ar  
    24    10    26 1   
    25    11    15 ar  
    26    11    16 ar  
    27    12    27 1   
    28    13    16 ar  
    29    14    28 1   
    30    15    17 1   
    31    16    29 1   
    32    17    30 1   
    33    17    31 1   
    34    19    32 1   
@<TRIPOS>SUBSTRUCTURE
     1 OJI         1 TEMP              0 ****  ****    0 ROOT
