@<TRIPOS>MOLECULE
OJI
   32    34     1     0     0
SMALL
bcc


@<TRIPOS>ATOM
      1 N1         106.4180    83.5930    93.9130 na         1 OJI      -0.283000
      2 C2         106.6480    84.9580    93.4940 c5         1 OJI       0.253800
      3 C3         107.9510    86.2450    95.0280 c5         1 OJI       0.067100
      4 C4         108.6910    86.0680    93.7060 c5         1 OJI       0.140100
      5 C5         110.1210    85.6180    93.8860 c3         1 OJI       0.142400
      6 C6         105.4970    82.7400    93.3780 ca         1 OJI       0.490800
      7 O2         105.9300    87.1410    94.0540 oh         1 OJI      -0.579800
      8 N2         106.6810    81.6440    94.9860 nc         1 OJI      -0.533100
      9 N3         104.6240    82.9760    92.4210 nb         1 OJI      -0.780000
     10 O4         110.7420    85.5450    92.6260 oh         1 OJI      -0.578800
     11 N4         103.9350    80.7020    92.7090 nb         1 OJI      -0.784000
     12 C7         107.0950    82.8650    94.8650 cd         1 OJI       0.410700
     13 C8         105.6680    81.5320    94.0600 ca         1 OJI      -0.221200
     14 C1         106.4940    85.9890    94.6170 c5         1 OJI       0.078100
     15 C10        103.8680    81.9160    92.1260 ca         1 OJI       0.918900
     16 C9         104.8240    80.5070    93.6660 ca         1 OJI       0.547200
     17 N5         102.9220    82.0740    91.1760 nv         1 OJI      -0.944500
     18 O1         107.9530    85.0820    92.9960 os         1 OJI      -0.382600
     19 O3         108.1680    87.5290    95.5430 oh         1 OJI      -0.583800
     20 H1         105.9120    85.1490    92.7100 h2         1 OJI       0.130700
     21 H2         108.2720    85.4740    95.7410 h1         1 OJI       0.047700
     22 H3         108.6750    87.0160    93.1510 h1         1 OJI       0.090700
     23 H4         110.1260    84.6510    94.4070 h1         1 OJI       0.026200
     24 H5         110.6150    86.3430    94.5460 h1         1 OJI       0.026200
     25 H6         106.2900    87.9030    94.5280 ho         1 OJI       0.428000
     26 H7         111.6540    85.2700    92.7550 ho         1 OJI       0.408000
     27 H8         107.8990    83.2960    95.4430 h5         1 OJI       0.058800
     28 H9         105.8830    85.6020    95.4430 h1         1 OJI       0.070700
     29 H10        104.8610    79.5220    94.1200 h4         1 OJI       0.036100
     30 H11        102.9710    82.8810    90.5780 hn         1 OJI       0.439800
     31 H12        102.4860    81.2520    90.7940 hn         1 OJI       0.439800
     32 H13        108.0000    87.5210    96.4910 ho         1 OJI       0.419000
@<TRIPOS>BOND
     1     1     2 1   
     2     1     6 1   
     3     1    12 1   
     4     2    14 1   
     5     2    18 1   
     6     2    20 1   
     7     3     4 1   
     8     3    14 1   
     9     3    19 1   
    10     3    21 1   
    11     4     5 1   
    12     4    18 1   
    13     4    22 1   
    14     5    10 1   
    15     5    23 1   
    16     5    24 1   
    17     6     9 ar  
    18     6    13 ar  
    19     7    14 1   
    20     7    25 1   
    21     8    12 2   
    22     8    13 1   
    23     9    15 ar  
    24    10    26 1   
    25    11    15 ar  
    26    11    16 ar  
    27    12    27 1   
    28    13    16 ar  
    29    14    28 1   
    30    15    17 1   
    31    16    29 1   
    32    17    30 1   
    33    17    31 1   
    34    19    32 1   
@<TRIPOS>SUBSTRUCTURE
     1 OJI         1 TEMP              0 ****  ****    0 ROOT
