@<TRIPOS>MOLECULE
OJJ
   46    47     1     0     0
SMALL
bcc


@<TRIPOS>ATOM
      1 O01         -7.7120     1.1190     1.4080 oh         1 OJJ      -0.604800
      2 C02         -6.5650     0.3630     1.7110 c3         1 OJJ       0.120100
      3 C03         -5.6900     0.3180     0.5050 cc         1 OJJ       0.300600
      4 C04         -5.8950     0.8870    -0.7190 cd         1 OJJ      -0.228600
      5 N05         -4.7920     0.5430    -1.4550 na         1 OJJ      -0.302900
      6 C06         -3.9800    -0.2000    -0.6770 cd         1 OJJ       0.401800
      7 C07         -2.6720    -0.7460    -1.1370 c3         1 OJJ      -0.095700
      8 C08         -1.4980    -0.2420    -0.2980 c3         1 OJJ      -0.071400
      9 C09         -0.1720    -0.8460    -0.7420 c3         1 OJJ      -0.100400
     10 C10          0.9790    -0.3790     0.1400 c3         1 OJJ       0.111000
     11 N11          2.2680    -0.9130    -0.2630 n          1 OJJ      -0.471800
     12 C12          2.6330    -2.1310     0.1880 c          1 OJJ       0.755100
     13 O13          3.8580    -2.4860    -0.2100 os         1 OJJ      -0.434900
     14 C14          4.3210    -3.7680     0.1990 c3         1 OJJ       0.146700
     15 O15          1.9350    -2.8360     0.8910 o          1 OJJ      -0.589000
     16 C16          3.0630    -0.0900    -1.1570 c3         1 OJJ       0.161300
     17 C17          3.7010     1.0870    -0.4580 ca         1 OJJ      -0.112300
     18 C18          4.5080     0.9020     0.6630 ca         1 OJJ      -0.114000
     19 C19          5.0950     1.9880     1.2950 ca         1 OJJ      -0.130000
     20 C20          4.8860     3.2760     0.8140 ca         1 OJJ      -0.123000
     21 C21          4.0860     3.4690    -0.3020 ca         1 OJJ      -0.130000
     22 C22          3.4960     2.3780    -0.9310 ca         1 OJJ      -0.114000
     23 N23         -4.5000    -0.3530     0.5180 nc         1 OJJ      -0.678000
     24 H1          -8.2550     1.1670     2.1990 ho         1 OJJ       0.406000
     25 H2          -6.0010     0.7960     2.5490 h1         1 OJJ       0.033700
     26 H3          -6.8190    -0.6620     2.0130 h1         1 OJJ       0.033700
     27 H4          -6.6920     1.4840    -1.1250 h4         1 OJJ       0.186000
     28 H5          -4.6190     0.8060    -2.4120 hn         1 OJJ       0.297700
     29 H6          -2.7040    -1.8380    -1.0930 hc         1 OJJ       0.052200
     30 H7          -2.5180    -0.4850    -2.1870 hc         1 OJJ       0.052200
     31 H8          -1.4490     0.8490    -0.3610 hc         1 OJJ       0.053700
     32 H9          -1.6770    -0.4850     0.7520 hc         1 OJJ       0.053700
     33 H10         -0.2370    -1.9370    -0.7050 hc         1 OJJ       0.047200
     34 H11          0.0260    -0.5760    -1.7840 hc         1 OJJ       0.047200
     35 H12          1.0540     0.7110     0.1060 h1         1 OJJ       0.060200
     36 H13          0.7840    -0.6400     1.1800 h1         1 OJJ       0.060200
     37 H14          3.7010    -4.5690    -0.2040 h1         1 OJJ       0.047700
     38 H15          5.3270    -3.8610    -0.2020 h1         1 OJJ       0.047700
     39 H16          4.3610    -3.8560     1.2840 h1         1 OJJ       0.047700
     40 H17          3.8250    -0.6980    -1.6410 h1         1 OJJ       0.060700
     41 H18          2.4150     0.2740    -1.9580 h1         1 OJJ       0.060700
     42 H19          4.6840    -0.0950     1.0480 ha         1 OJJ       0.132000
     43 H20          5.7190     1.8310     2.1660 ha         1 OJJ       0.131500
     44 H21          5.3440     4.1230     1.3100 ha         1 OJJ       0.131000
     45 H22          3.9150     4.4670    -0.6830 ha         1 OJJ       0.131500
     46 H23          2.8650     2.5350    -1.7980 ha         1 OJJ       0.132000
@<TRIPOS>BOND
     1     1     2 1   
     2     1    24 1   
     3     2     3 1   
     4     2    25 1   
     5     2    26 1   
     6     3     4 2   
     7     3    23 1   
     8     4     5 1   
     9     4    27 1   
    10     5     6 1   
    11     5    28 1   
    12     6     7 1   
    13     6    23 2   
    14     7     8 1   
    15     7    29 1   
    16     7    30 1   
    17     8     9 1   
    18     8    31 1   
    19     8    32 1   
    20     9    10 1   
    21     9    33 1   
    22     9    34 1   
    23    10    11 1   
    24    10    35 1   
    25    10    36 1   
    26    11    12 1   
    27    11    16 1   
    28    12    13 1   
    29    12    15 2   
    30    13    14 1   
    31    14    37 1   
    32    14    38 1   
    33    14    39 1   
    34    16    17 1   
    35    16    40 1   
    36    16    41 1   
    37    17    18 ar  
    38    17    22 ar  
    39    18    19 ar  
    40    18    42 1   
    41    19    20 ar  
    42    19    43 1   
    43    20    21 ar  
    44    20    44 1   
    45    21    22 ar  
    46    21    45 1   
    47    22    46 1   
@<TRIPOS>SUBSTRUCTURE
     1 OJJ         1 TEMP              0 ****  ****    0 ROOT
