@<TRIPOS>MOLECULE
OJJ
   46    47     1     0     0
SMALL
No Charge or Current Charge


@<TRIPOS>ATOM
      1 O01         -8.4390    -0.1570     0.4640 oh         1 OJJ      -0.667000
      2 C02         -7.2360    -0.0170     1.2440 c3         1 OJJ       0.143300
      3 C03         -6.0270     0.3190     0.3860 cc         1 OJJ       0.235300
      4 C04         -5.8000     1.4800    -0.3070 cd         1 OJJ      -0.196000
      5 N05         -4.5690     1.3000    -0.9200 na         1 OJJ      -0.302500
      6 C06         -4.1200     0.0460    -0.5660 cd         1 OJJ       0.401800
      7 C07         -2.8120    -0.5630    -1.0010 c3         1 OJJ      -0.095700
      8 C08         -1.6220    -0.1190    -0.1200 c3         1 OJJ      -0.071400
      9 C09         -0.2770    -0.7350    -0.5650 c3         1 OJJ      -0.100400
     10 C10          0.9070    -0.2920     0.3180 c3         1 OJJ       0.111000
     11 N11          2.1950    -0.8790    -0.1120 n          1 OJJ      -0.404800
     12 C12          2.6980    -2.0350     0.5220 c          1 OJJ       0.639100
     13 O13          3.9090    -2.4280     0.0190 os         1 OJJ      -0.458100
     14 C14          4.5310    -3.5940     0.5880 c3         1 OJJ       0.169900
     15 O15          2.1090    -2.6220     1.4190 o          1 OJJ      -0.540000
     16 C16          2.9440    -0.1670    -1.1760 c3         1 OJJ       0.161300
     17 C17          3.8370     0.9490    -0.6430 ca         1 OJJ      -0.112300
     18 C18          5.1570     0.6730    -0.2340 ca         1 OJJ      -0.096000
     19 C19          5.9780     1.7030     0.2590 ca         1 OJJ      -0.112000
     20 C20          5.4850     3.0160     0.3440 ca         1 OJJ      -0.105000
     21 C21          4.1710     3.2980    -0.0650 ca         1 OJJ      -0.112000
     22 C22          3.3500     2.2690    -0.5580 ca         1 OJJ      -0.096000
     23 N23         -4.9870    -0.5610     0.2270 nc         1 OJJ      -0.678000
     24 H1          -9.1610    -0.3910     1.0910 ho         1 OJJ       0.445000
     25 H2          -7.3610     0.7800     1.9890 h1         1 OJJ       0.033700
     26 H3          -7.0350    -0.9450     1.7960 h1         1 OJJ       0.033700
     27 H4          -6.4040     2.3760    -0.4020 h4         1 OJJ       0.168000
     28 H5          -4.0770     1.9540    -1.5180 hn         1 OJJ       0.348000
     29 H6          -2.8870    -1.6570    -0.9810 hc         1 OJJ       0.052200
     30 H7          -2.6110    -0.2870    -2.0440 hc         1 OJJ       0.052200
     31 H8          -1.5440     0.9760    -0.1450 hc         1 OJJ       0.053700
     32 H9          -1.8230    -0.4010     0.9210 hc         1 OJJ       0.053700
     33 H10         -0.3530    -1.8290    -0.5360 hc         1 OJJ       0.047200
     34 H11         -0.0780    -0.4540    -1.6060 hc         1 OJJ       0.047200
     35 H12          0.9870     0.8030     0.2860 h1         1 OJJ       0.060200
     36 H13          0.7040    -0.5630     1.3630 h1         1 OJJ       0.060200
     37 H14          3.8930    -4.4790     0.4610 h1         1 OJJ       0.047700
     38 H15          5.4900    -3.7940     0.0940 h1         1 OJJ       0.047700
     39 H16          4.7220    -3.4530     1.6590 h1         1 OJJ       0.047700
     40 H17          3.5470    -0.8740    -1.7600 h1         1 OJJ       0.060700
     41 H18          2.2230     0.2660    -1.8810 h1         1 OJJ       0.060700
     42 H19          5.5500    -0.3390    -0.2970 ha         1 OJJ       0.114000
     43 H20          6.9950     1.4830     0.5740 ha         1 OJJ       0.113500
     44 H21          6.1200     3.8130     0.7250 ha         1 OJJ       0.113000
     45 H22          3.7880     4.3140    -0.0010 ha         1 OJJ       0.113500
     46 H23          2.3350     2.4990    -0.8740 ha         1 OJJ       0.114000
@<TRIPOS>BOND
     1     1     2 1   
     2     1    24 1   
     3     2     3 1   
     4     2    25 1   
     5     2    26 1   
     6     3     4 2   
     7     3    23 1   
     8     4     5 1   
     9     4    27 1   
    10     5     6 1   
    11     5    28 1   
    12     6     7 1   
    13     6    23 2   
    14     7     8 1   
    15     7    29 1   
    16     7    30 1   
    17     8     9 1   
    18     8    31 1   
    19     8    32 1   
    20     9    10 1   
    21     9    33 1   
    22     9    34 1   
    23    10    11 1   
    24    10    35 1   
    25    10    36 1   
    26    11    12 1   
    27    11    16 1   
    28    12    13 1   
    29    12    15 2   
    30    13    14 1   
    31    14    37 1   
    32    14    38 1   
    33    14    39 1   
    34    16    17 1   
    35    16    40 1   
    36    16    41 1   
    37    17    18 ar  
    38    17    22 ar  
    39    18    19 ar  
    40    18    42 1   
    41    19    20 ar  
    42    19    43 1   
    43    20    21 ar  
    44    20    44 1   
    45    21    22 ar  
    46    21    45 1   
    47    22    46 1   
@<TRIPOS>SUBSTRUCTURE
     1 OJJ         1 TEMP              0 ****  ****    0 ROOT
