@<TRIPOS>MOLECULE
OJK
   19    19     1     0     0
SMALL
No Charge or Current Charge


@<TRIPOS>ATOM
      1 C14         15.5360   -10.7810    20.1260 c3         1 OJK       0.204100
      2 C15         14.3300   -11.3580    20.8650 ca         1 OJK      -0.064300
      3 C16         13.8700   -12.6470    20.5200 ca         1 OJK      -0.092000
      4 C17         12.7610   -13.2100    21.1710 ca         1 OJK       0.123100
      5 O2          12.3360   -14.4620    20.8180 oh         1 OJK      -0.528100
      6 C18         12.0980   -12.4810    22.1800 ca         1 OJK       0.060000
      7 C19         12.5470   -11.1970    22.5310 ca         1 OJK      -0.160000
      8 C20         13.6580   -10.6330    21.8790 ca         1 OJK       0.114100
      9 N2          16.8080   -11.3270    20.6420 n8         1 OJK      -0.989200
     10 Cl          10.7020   -13.1640    23.0130 cl         1 OJK      -0.206000
     11 H1          15.5570    -9.6860    20.2110 h1         1 OJK       0.039200
     12 H2          15.4580   -11.0270    19.0570 h1         1 OJK       0.039200
     13 H3          14.3790   -13.2140    19.7450 ha         1 OJK       0.137000
     14 H4          11.5580   -14.6860    21.3740 ho         1 OJK       0.476000
     15 H5          13.4890    -9.0470    22.9530 ho         1 OJK       0.467000
     16 H6          12.0260   -10.6470    23.3100 ha         1 OJK       0.128000
     17 H7          17.5870   -10.8560    20.1670 hn         1 OJK       0.396000
     18 H8          16.9090   -11.0340    21.6210 hn         1 OJK       0.396000
     19 O3          14.0750    -9.3820    22.2400 oh         1 OJK      -0.541100
@<TRIPOS>BOND
     1     1     2 1   
     2     1     9 1   
     3     1    11 1   
     4     1    12 1   
     5     2     3 ar  
     6     2     8 ar  
     7     3     4 ar  
     8     3    13 1   
     9     4     5 1   
    10     4     6 ar  
    11     5    14 1   
    12     6     7 ar  
    13     6    10 1   
    14     7     8 ar  
    15     7    16 1   
    16     8    19 1   
    17     9    17 1   
    18     9    18 1   
    19    15    19 1   
@<TRIPOS>SUBSTRUCTURE
     1 OJK         1 TEMP              0 ****  ****    0 ROOT
