@<TRIPOS>MOLECULE
OJK
   19    19     1     0     0
SMALL
bcc


@<TRIPOS>ATOM
      1 C14         15.5170   -10.8610    20.1170 c3         1 OJK       0.204100
      2 C15         14.3150   -11.4100    20.8400 ca         1 OJK      -0.064300
      3 C16         13.7870   -12.6420    20.4880 ca         1 OJK      -0.110000
      4 C17         12.6910   -13.2020    21.1390 ca         1 OJK       0.123100
      5 O2          12.2450   -14.4010    20.7200 oh         1 OJK      -0.489100
      6 C18         12.1300   -12.4790    22.1850 ca         1 OJK      -0.031600
      7 C19         12.6370   -11.2440    22.5660 ca         1 OJK      -0.178000
      8 C20         13.7270   -10.7070    21.8990 ca         1 OJK       0.114100
      9 N2          16.7380   -11.0870    20.8850 n8         1 OJK      -0.878800
     10 CL          10.7640   -13.1330    23.0320 cl         1 OJK      -0.114400
     11 H1          15.3430    -9.8070    19.8650 h1         1 OJK       0.039200
     12 H2          15.6180   -11.3880    19.1670 h1         1 OJK       0.039200
     13 H3          14.2330   -13.1950    19.6690 ha         1 OJK       0.155000
     14 H4          11.4700   -14.6810    21.2210 ho         1 OJK       0.437000
     15 H5          13.7770    -9.1120    22.9630 ho         1 OJK       0.428000
     16 H6          12.1740   -10.7080    23.3860 ha         1 OJK       0.146000
     17 H7          17.5280   -10.7680    20.3370 hn         1 OJK       0.340800
     18 H8          16.7300   -10.5020    21.7110 hn         1 OJK       0.340800
     19 O3          14.2610    -9.5110    22.2320 oh         1 OJK      -0.502100
@<TRIPOS>BOND
     1     1     2 1   
     2     1     9 1   
     3     1    11 1   
     4     1    12 1   
     5     2     3 ar  
     6     2     8 ar  
     7     3     4 ar  
     8     3    13 1   
     9     4     5 1   
    10     4     6 ar  
    11     5    14 1   
    12     6     7 ar  
    13     6    10 1   
    14     7     8 ar  
    15     7    16 1   
    16     8    19 1   
    17     9    17 1   
    18     9    18 1   
    19    15    19 1   
@<TRIPOS>SUBSTRUCTURE
     1 OJK         1 TEMP              0 ****  ****    0 ROOT
