@<TRIPOS>MOLECULE
OJL
   78    82     1     0     0
SMALL
abcg2


@<TRIPOS>ATOM
      1 C10        -54.2310   -17.9560    14.9150 ca         1 OJL      -0.055300
      2 C11        -54.5930   -18.6650    13.7650 ca         1 OJL      -0.167300
      3 C12        -54.5570   -18.0820    12.5020 ca         1 OJL      -0.093000
      4 C13        -54.1500   -16.7590    12.3510 ca         1 OJL      -0.025000
      5 C17        -54.1010   -15.5790     8.7730 ca         1 OJL      -0.153600
      6 C18        -54.7210   -15.8750     7.5630 ca         1 OJL      -0.049000
      7 C20        -53.9000   -13.8090     6.5840 ca         1 OJL      -0.033300
      8 C21        -53.8010   -12.8740     5.4200 c3         1 OJL      -0.052800
      9 C25        -54.7280   -16.0000     4.3890 ca         1 OJL       0.367300
     10 C26        -55.5460   -16.4210     3.3170 ca         1 OJL      -0.138000
     11 C01        -55.0010   -15.9900    22.2770 c3         1 OJL      -0.090100
     12 C04        -53.7940   -16.9940    19.6780 c6         1 OJL       0.165300
     13 C05        -53.7920   -18.0760    18.6160 c6         1 OJL       0.163300
     14 C07        -55.5820   -16.9790    17.5010 c6         1 OJL       0.163300
     15 C08        -55.5770   -15.8990    18.5640 c6         1 OJL       0.165300
     16 C09        -54.2140   -18.5530    16.3080 c3         1 OJL       0.209100
     17 C19        -54.6220   -14.9970     6.5050 ca         1 OJL       0.098100
     18 C22        -53.2720   -13.5380     7.7960 ca         1 OJL      -0.115000
     19 C23        -53.3640   -14.4020     8.8770 ca         1 OJL      -0.080000
     20 C27        -56.9280   -16.1510     3.2110 ca         1 OJL      -0.142000
     21 C28        -57.6360   -16.6350     2.1450 ca         1 OJL       0.115100
     22 C30        -59.6720   -15.6920     2.8790 c3         1 OJL       0.142900
     23 C31        -56.9710   -17.4160     1.1390 ca         1 OJL       0.162100
     24 C32        -55.6270   -17.6670     1.2350 ca         1 OJL      -0.191000
     25 C33        -54.8870   -17.1750     2.3310 ca         1 OJL       0.056000
     26 C35        -52.9340   -16.9920     3.4580 ca         1 OJL       0.155900
     27 C38        -57.1930   -18.6050    -0.8890 c3         1 OJL       0.141900
     28 C39        -53.7780   -16.0470    13.4890 ca         1 OJL      -0.144000
     29 C40        -53.8160   -16.6390    14.7350 ca         1 OJL      -0.076000
     30 C41        -55.0760   -20.0850    13.8580 c3         1 OJL       0.353300
     31 F42        -54.2560   -20.8620    14.5820 f          1 OJL      -0.114000
     32 F43        -56.2860   -20.1600    14.4350 f          1 OJL      -0.114000
     33 F44        -55.1900   -20.6730    12.6640 f          1 OJL      -0.114000
     34 N03        -55.1190   -16.4270    19.8340 n3         1 OJL      -0.720600
     35 N06        -54.2560   -17.5500    17.3470 n3         1 OJL      -0.728600
     36 N14        -54.1050   -16.0800    11.1300 ns         1 OJL      -0.143000
     37 N34        -53.5600   -17.4500     2.4140 nb         1 OJL      -0.187000
     38 N36        -53.4600   -16.2760     4.4690 nb         1 OJL      -0.265000
     39 O16        -54.5020   -17.7430     9.6340 o          1 OJL      -0.571100
     40 O24        -55.3240   -15.2900     5.3530 os         1 OJL      -0.369400
     41 O29        -58.9430   -16.4520     1.9340 os         1 OJL      -0.317100
     42 O37        -57.7660   -17.8460     0.1600 os         1 OJL      -0.314100
     43 H1         -54.8510   -18.6480    11.6360 ha         1 OJL       0.166000
     44 H2         -55.2950   -16.7860     7.4500 ha         1 OJL       0.151000
     45 H3         -54.7830   -12.6080     5.0300 hc         1 OJL       0.053033
     46 H4         -53.2920   -11.9550     5.7070 hc         1 OJL       0.053033
     47 H5         -53.2360   -13.3220     4.6010 hc         1 OJL       0.053033
     48 H6         -55.1690   -15.2100    23.0200 hc         1 OJL       0.037367
     49 H7         -55.7160   -16.7920    22.4630 hc         1 OJL       0.037367
     50 H8         -53.9980   -16.3830    22.4460 hc         1 OJL       0.037367
     51 H9         -54.4440   -14.6170    20.7070 h1         1 OJL       0.027700
     52 H10        -56.1650   -14.9490    20.8210 h1         1 OJL       0.027700
     53 H11        -53.4670   -17.4400    20.6190 h1         1 OJL       0.036950
     54 H12        -53.0520   -16.2200    19.4110 h1         1 OJL       0.036950
     55 H13        -54.4150   -18.9190    18.9600 h1         1 OJL       0.041950
     56 H14        -52.7750   -18.4550    18.4950 h1         1 OJL       0.041950
     57 H15        -55.9060   -16.5410    16.5540 h1         1 OJL       0.041950
     58 H16        -56.3200   -17.7550    17.7670 h1         1 OJL       0.041950
     59 H17        -54.9500   -15.0580    18.2190 h1         1 OJL       0.036950
     60 H18        -56.5920   -15.5130    18.6810 h1         1 OJL       0.036950
     61 H19        -55.0300   -19.2770    16.4400 h1         1 OJL       0.053200
     62 H20        -53.2840   -19.1190    16.4230 h1         1 OJL       0.053200
     63 H21        -52.6920   -12.6300     7.8950 ha         1 OJL       0.120000
     64 H22        -52.8320   -14.1450     9.7840 ha         1 OJL       0.113000
     65 H23        -57.4160   -15.5660     3.9780 ha         1 OJL       0.138000
     66 H24        -60.6980   -15.6610     2.5240 h1         1 OJL       0.044367
     67 H25        -59.6520   -16.1540     3.8700 h1         1 OJL       0.044367
     68 H26        -59.2910   -14.6700     2.9570 h1         1 OJL       0.044367
     69 H27        -55.1010   -18.2490     0.4910 ha         1 OJL       0.144000
     70 H28        -51.8730   -17.2050     3.5370 h5         1 OJL       0.050100
     71 H29        -58.0020   -18.8350    -1.5770 h1         1 OJL       0.046700
     72 H30        -56.4230   -18.0410    -1.4210 h1         1 OJL       0.046700
     73 H31        -56.7610   -19.5390    -0.5220 h1         1 OJL       0.046700
     74 H32        -53.4520   -15.0170    13.4020 ha         1 OJL       0.113000
     75 H33        -53.5220   -16.0650    15.6030 ha         1 OJL       0.141000
     76 H36        -53.9500   -15.0870    11.2140 hn         1 OJL       0.155000
     77 C02        -55.1810   -15.4210    20.8790 c3         1 OJL       0.169800
     78 C15        -54.2490   -16.5760     9.8760 c          1 OJL       0.623700
@<TRIPOS>BOND
     1     1     2 ar  
     2     1    16 1   
     3     1    29 ar  
     4     2     3 ar  
     5     2    30 1   
     6     3     4 ar  
     7     3    43 1   
     8     4    28 ar  
     9     4    36 1   
    10     5     6 ar  
    11     5    19 ar  
    12     5    78 1   
    13     6    17 ar  
    14     6    44 1   
    15     7     8 1   
    16     7    17 ar  
    17     7    18 ar  
    18     8    45 1   
    19     8    46 1   
    20     8    47 1   
    21     9    10 ar  
    22     9    38 ar  
    23     9    40 1   
    24    10    20 ar  
    25    10    25 ar  
    26    11    48 1   
    27    11    49 1   
    28    11    50 1   
    29    11    77 1   
    30    12    13 1   
    31    12    34 1   
    32    12    53 1   
    33    12    54 1   
    34    13    35 1   
    35    13    55 1   
    36    13    56 1   
    37    14    15 1   
    38    14    35 1   
    39    14    57 1   
    40    14    58 1   
    41    15    34 1   
    42    15    59 1   
    43    15    60 1   
    44    16    35 1   
    45    16    61 1   
    46    16    62 1   
    47    17    40 1   
    48    18    19 ar  
    49    18    63 1   
    50    19    64 1   
    51    20    21 ar  
    52    20    65 1   
    53    21    23 ar  
    54    21    41 1   
    55    22    41 1   
    56    22    66 1   
    57    22    67 1   
    58    22    68 1   
    59    23    24 ar  
    60    23    42 1   
    61    24    25 ar  
    62    24    69 1   
    63    25    37 ar  
    64    26    37 ar  
    65    26    38 ar  
    66    26    70 1   
    67    27    42 1   
    68    27    71 1   
    69    27    72 1   
    70    27    73 1   
    71    28    29 ar  
    72    28    74 1   
    73    29    75 1   
    74    30    31 1   
    75    30    32 1   
    76    30    33 1   
    77    34    77 1   
    78    36    76 1   
    79    36    78 1   
    80    39    78 2   
    81    51    77 1   
    82    52    77 1   
@<TRIPOS>SUBSTRUCTURE
     1 OJL         1 TEMP              0 ****  ****    0 ROOT
