@<TRIPOS>MOLECULE
OJL
   78    82     1     0     0
SMALL
No Charge or Current Charge


@<TRIPOS>ATOM
      1 C10        -53.4480   -17.8200    14.8440 ca         1 OJL      -0.055300
      2 C11        -54.1810   -18.4890    13.8210 ca         1 OJL      -0.167300
      3 C12        -54.2910   -17.8720    12.5470 ca         1 OJL      -0.093000
      4 C13        -53.6890   -16.6240    12.2780 ca         1 OJL      -0.025000
      5 C17        -54.1870   -15.2920     8.6860 ca         1 OJL      -0.153600
      6 C18        -54.6780   -15.6000     7.3960 ca         1 OJL      -0.049000
      7 C20        -54.0530   -13.3840     6.5780 ca         1 OJL      -0.033300
      8 C21        -53.9800   -12.3560     5.4550 c3         1 OJL      -0.052800
      9 C25        -54.7260   -16.1080     4.4080 ca         1 OJL       0.367300
     10 C26        -55.5730   -16.6010     3.3840 ca         1 OJL      -0.138000
     11 C01        -55.8880   -16.4130    22.1900 c3         1 OJL      -0.090100
     12 C04        -53.9980   -17.0000    19.8080 c6         1 OJL       0.165300
     13 C05        -53.4500   -17.9560    18.6990 c6         1 OJL       0.163300
     14 C07        -55.2800   -17.2910    17.2180 c6         1 OJL       0.163300
     15 C08        -55.8250   -16.3310    18.3240 c6         1 OJL       0.165300
     16 C09        -53.2550   -18.3790    16.2640 c3         1 OJL       0.209100
     17 C19        -54.6020   -14.6610     6.3490 ca         1 OJL       0.098100
     18 C22        -53.5630   -13.0700     7.8580 ca         1 OJL      -0.115000
     19 C23        -53.6250   -14.0090     8.9020 ca         1 OJL      -0.080000
     20 C27        -56.7990   -15.9790     3.0640 ca         1 OJL      -0.142000
     21 C28        -57.6170   -16.5020     2.0380 ca         1 OJL       0.115100
     22 C30        -59.3340   -14.7440     2.3570 c3         1 OJL       0.142900
     23 C31        -57.1990   -17.6550     1.3330 ca         1 OJL       0.162100
     24 C32        -55.9700   -18.2710     1.6600 ca         1 OJL      -0.191000
     25 C33        -55.1530   -17.7540     2.6790 ca         1 OJL       0.056000
     26 C35        -53.2420   -17.8030     3.9640 ca         1 OJL       0.155900
     27 C38        -57.6820   -19.3160    -0.4420 c3         1 OJL       0.141900
     28 C39        -52.9760   -15.9810    13.3000 ca         1 OJL      -0.144000
     29 C40        -52.8560   -16.5740    14.5640 ca         1 OJL      -0.076000
     30 C41        -54.8510   -19.8590    14.0620 c3         1 OJL       0.353300
     31 F42        -53.9460   -20.8080    14.3940 f          1 OJL      -0.114000
     32 F43        -55.7620   -19.8060    15.0600 f          1 OJL      -0.114000
     33 F44        -55.5100   -20.3300    12.9780 f          1 OJL      -0.114000
     34 N03        -55.4790   -16.7890    19.7050 n3         1 OJL      -0.720600
     35 N06        -53.8020   -17.4940    17.3220 n3         1 OJL      -0.728600
     36 N14        -53.7700   -15.9570    11.0230 ns         1 OJL      -0.143000
     37 N34        -53.9810   -18.3500     2.9790 nb         1 OJL      -0.187000
     38 N36        -53.5520   -16.7130     4.6890 nb         1 OJL      -0.265000
     39 O16        -54.7740   -17.4370     9.5690 o          1 OJL      -0.571100
     40 O24        -55.1000   -14.9750     5.1020 os         1 OJL      -0.369400
     41 O29        -58.8270   -15.9180     1.6970 os         1 OJL      -0.317100
     42 O37        -58.0190   -18.1500     0.3310 os         1 OJL      -0.314100
     43 H1         -54.8550   -18.3720    11.7670 ha         1 OJL       0.166000
     44 H2         -55.1250   -16.5710     7.1980 ha         1 OJL       0.151000
     45 H3         -54.9810   -12.1170     5.0780 hc         1 OJL       0.053033
     46 H4         -53.5180   -11.4190     5.7870 hc         1 OJL       0.053033
     47 H5         -53.3880   -12.7360     4.6140 hc         1 OJL       0.053033
     48 H6         -56.4240   -15.7540    22.8820 hc         1 OJL       0.037367
     49 H7         -56.3110   -17.4200    22.2800 hc         1 OJL       0.037367
     50 H8         -54.8380   -16.4430    22.5010 hc         1 OJL       0.037367
     51 H9         -55.5560   -14.9020    20.6820 h1         1 OJL       0.027700
     52 H10        -57.1040   -15.7410    20.5580 h1         1 OJL       0.027700
     53 H11        -53.7330   -17.4300    20.7840 h1         1 OJL       0.036950
     54 H12        -53.4730   -16.0360    19.7280 h1         1 OJL       0.036950
     55 H13        -53.8580   -18.9630    18.8740 h1         1 OJL       0.041950
     56 H14        -52.3580   -18.0290    18.8080 h1         1 OJL       0.041950
     57 H15        -55.5450   -16.8730    16.2360 h1         1 OJL       0.041950
     58 H16        -55.8010   -18.2550    17.3080 h1         1 OJL       0.041950
     59 H17        -55.4130   -15.3260    18.1450 h1         1 OJL       0.036950
     60 H18        -56.9160   -16.2540    18.2110 h1         1 OJL       0.036950
     61 H19        -53.6910   -19.3790    16.3630 h1         1 OJL       0.053200
     62 H20        -52.1750   -18.5050    16.4180 h1         1 OJL       0.053200
     63 H21        -53.1300   -12.0900     8.0500 ha         1 OJL       0.120000
     64 H22        -53.2330   -13.7180     9.8730 ha         1 OJL       0.113000
     65 H23        -57.1050   -15.0950     3.6160 ha         1 OJL       0.138000
     66 H24        -60.3020   -14.4560     1.9280 h1         1 OJL       0.044367
     67 H25        -59.4800   -14.9310     3.4280 h1         1 OJL       0.044367
     68 H26        -58.6440   -13.8990     2.2350 h1         1 OJL       0.044367
     69 H27        -55.6310   -19.1570     1.1300 ha         1 OJL       0.144000
     70 H28        -52.2970   -18.2920     4.1940 h5         1 OJL       0.050100
     71 H29        -58.4700   -19.5260    -1.1750 h1         1 OJL       0.046700
     72 H30        -56.7420   -19.1640    -0.9880 h1         1 OJL       0.046700
     73 H31        -57.5770   -20.1960     0.2050 h1         1 OJL       0.046700
     74 H32        -52.5080   -15.0160    13.1180 ha         1 OJL       0.113000
     75 H33        -52.2990   -16.0560    15.3440 ha         1 OJL       0.141000
     76 H36        -53.3790   -15.0260    11.0370 hn         1 OJL       0.155000
     77 C02        -56.0320   -15.8900    20.7460 c3         1 OJL       0.169800
     78 C15        -54.2810   -16.3350     9.7860 c          1 OJL       0.623700
@<TRIPOS>BOND
     1     1     2 ar  
     2     1    16 1   
     3     1    29 ar  
     4     2     3 ar  
     5     2    30 1   
     6     3     4 ar  
     7     3    43 1   
     8     4    28 ar  
     9     4    36 1   
    10     5     6 ar  
    11     5    19 ar  
    12     5    78 1   
    13     6    17 ar  
    14     6    44 1   
    15     7     8 1   
    16     7    17 ar  
    17     7    18 ar  
    18     8    45 1   
    19     8    46 1   
    20     8    47 1   
    21     9    10 ar  
    22     9    38 ar  
    23     9    40 1   
    24    10    20 ar  
    25    10    25 ar  
    26    11    48 1   
    27    11    49 1   
    28    11    50 1   
    29    11    77 1   
    30    12    13 1   
    31    12    34 1   
    32    12    53 1   
    33    12    54 1   
    34    13    35 1   
    35    13    55 1   
    36    13    56 1   
    37    14    15 1   
    38    14    35 1   
    39    14    57 1   
    40    14    58 1   
    41    15    34 1   
    42    15    59 1   
    43    15    60 1   
    44    16    35 1   
    45    16    61 1   
    46    16    62 1   
    47    17    40 1   
    48    18    19 ar  
    49    18    63 1   
    50    19    64 1   
    51    20    21 ar  
    52    20    65 1   
    53    21    23 ar  
    54    21    41 1   
    55    22    41 1   
    56    22    66 1   
    57    22    67 1   
    58    22    68 1   
    59    23    24 ar  
    60    23    42 1   
    61    24    25 ar  
    62    24    69 1   
    63    25    37 ar  
    64    26    37 ar  
    65    26    38 ar  
    66    26    70 1   
    67    27    42 1   
    68    27    71 1   
    69    27    72 1   
    70    27    73 1   
    71    28    29 ar  
    72    28    74 1   
    73    29    75 1   
    74    30    31 1   
    75    30    32 1   
    76    30    33 1   
    77    34    77 1   
    78    36    76 1   
    79    36    78 1   
    80    39    78 2   
    81    51    77 1   
    82    52    77 1   
@<TRIPOS>SUBSTRUCTURE
     1 OJL         1 TEMP              0 ****  ****    0 ROOT
