@<TRIPOS>MOLECULE
OJM
   28    28     1     0     0
SMALL
abcg2


@<TRIPOS>ATOM
      1 CB           3.3580     0.8020    -0.6220 cc         1 OJM      -0.192000
      2 CA           3.1180    -0.3420     0.0820 cd         1 OJM       0.235300
      3 C8           1.2780     0.7550     0.0930 cc         1 OJM       0.395800
      4 C4          -2.5490     0.4860     0.1790 c          1 OJM       0.594100
      5 C1          -5.5010    -1.5370    -0.4060 c3         1 OJM      -0.097100
      6 C            4.0500    -1.4650     0.3820 c3         1 OJM       0.144300
      7 C7          -0.1280     1.1850     0.3370 c3         1 OJM      -0.087700
      8 C6          -1.1190     0.1180    -0.1130 c3         1 OJM      -0.137400
      9 C2          -4.7860    -0.2880     0.0490 c3         1 OJM       0.167600
     10 N9           2.1710     1.4850    -0.6030 na         1 OJM      -0.299500
     11 N            1.8230    -0.3600     0.5200 nd         1 OJM      -0.682000
     12 O5          -2.9090     1.5320     0.6620 o          1 OJM      -0.498000
     13 O            5.3090    -1.1610    -0.1660 oh         1 OJM      -0.666000
     14 O3          -3.3790    -0.4870    -0.1660 os         1 OJM      -0.450100
     15 H1           4.2320     1.1870    -1.1170 h4         1 OJM       0.169000
     16 H2          -5.3460    -1.7240    -1.4680 hc         1 OJM       0.047033
     17 H3          -5.1750    -2.4130     0.1550 hc         1 OJM       0.047033
     18 H4          -6.5720    -1.4160    -0.2400 hc         1 OJM       0.047033
     19 H5           4.1020    -1.6110     1.4700 h1         1 OJM       0.033200
     20 H6           3.6400    -2.3970    -0.0300 h1         1 OJM       0.033200
     21 H7          -0.2610     1.3850     1.4030 hc         1 OJM       0.065700
     22 H8          -0.3210     2.1250    -0.1810 hc         1 OJM       0.065700
     23 H9          -0.8940    -0.8360     0.3690 hc         1 OJM       0.085700
     24 H10         -1.0230    -0.0630    -1.1880 hc         1 OJM       0.085700
     25 H11         -5.1250     0.5830    -0.5140 h1         1 OJM       0.047700
     26 H12         -4.9710    -0.0960     1.1080 h1         1 OJM       0.047700
     27 H13          2.0010     2.3790    -1.0340 hn         1 OJM       0.351000
     28 H15          5.9140    -1.8720     0.0600 ho         1 OJM       0.446000
@<TRIPOS>BOND
     1     1     2 2   
     2     1    10 1   
     3     1    15 1   
     4     2     6 1   
     5     2    11 1   
     6     3     7 1   
     7     3    10 1   
     8     3    11 2   
     9     4     8 1   
    10     4    12 2   
    11     4    14 1   
    12     5     9 1   
    13     5    16 1   
    14     5    17 1   
    15     5    18 1   
    16     6    13 1   
    17     6    19 1   
    18     6    20 1   
    19     7     8 1   
    20     7    21 1   
    21     7    22 1   
    22     8    23 1   
    23     8    24 1   
    24     9    14 1   
    25     9    25 1   
    26     9    26 1   
    27    10    27 1   
    28    13    28 1   
@<TRIPOS>SUBSTRUCTURE
     1 OJM         1 TEMP              0 ****  ****    0 ROOT
