@<TRIPOS>MOLECULE
OJM
   28    28     1     0     0
SMALL
No Charge or Current Charge


@<TRIPOS>ATOM
      1 CB           3.2870     0.8170    -0.5240 cc         1 OJM      -0.192000
      2 CA           3.0910    -0.4300     0.0170 cd         1 OJM       0.235300
      3 C8           1.1600     0.5400     0.0670 cc         1 OJM       0.395800
      4 C4          -2.6490     0.7640    -0.7130 c          1 OJM       0.594100
      5 C1          -5.2070    -1.5690     0.5640 c3         1 OJM      -0.097100
      6 C            4.1340    -1.5200     0.2100 c3         1 OJM       0.144300
      7 C7          -0.3040     0.8230     0.2700 c3         1 OJM      -0.087700
      8 C6          -1.1700     0.4700    -0.9660 c3         1 OJM      -0.137400
      9 C2          -4.7120    -0.2030     0.0630 c3         1 OJM       0.167600
     10 N9           2.0490     1.4260    -0.4880 na         1 OJM      -0.299500
     11 N            1.7640    -0.5940     0.3770 nd         1 OJM      -0.682000
     12 O5          -3.1560     1.8670    -0.8670 o          1 OJM      -0.498000
     13 O            5.1160    -1.1740     1.2070 oh         1 OJM      -0.666000
     14 O3          -3.3140    -0.3380    -0.2430 os         1 OJM      -0.450100
     15 H1           4.1830     1.2880    -0.9120 h4         1 OJM       0.169000
     16 H2          -5.0700    -2.3360    -0.2070 hc         1 OJM       0.047033
     17 H3          -4.6590    -1.8720     1.4640 hc         1 OJM       0.047033
     18 H4          -6.2740    -1.5170     0.8120 hc         1 OJM       0.047033
     19 H5           3.6240    -2.4510     0.4920 h1         1 OJM       0.033200
     20 H6           4.6250    -1.7000    -0.7550 h1         1 OJM       0.033200
     21 H7          -0.6660     0.2580     1.1380 hc         1 OJM       0.065700
     22 H8          -0.4370     1.8840     0.5160 hc         1 OJM       0.065700
     23 H9          -1.0470    -0.6020    -1.1590 hc         1 OJM       0.085700
     24 H10         -0.8290     1.0580    -1.8250 hc         1 OJM       0.085700
     25 H11         -5.2820     0.0890    -0.8290 h1         1 OJM       0.047700
     26 H12         -4.8710     0.5530     0.8430 h1         1 OJM       0.047700
     27 H13          1.8180     2.3590    -0.8090 hn         1 OJM       0.351000
     28 H15          5.7330    -1.9370     1.2780 ho         1 OJM       0.446000
@<TRIPOS>BOND
     1     1     2 2   
     2     1    10 1   
     3     1    15 1   
     4     2     6 1   
     5     2    11 1   
     6     3     7 1   
     7     3    10 1   
     8     3    11 2   
     9     4     8 1   
    10     4    12 2   
    11     4    14 1   
    12     5     9 1   
    13     5    16 1   
    14     5    17 1   
    15     5    18 1   
    16     6    13 1   
    17     6    19 1   
    18     6    20 1   
    19     7     8 1   
    20     7    21 1   
    21     7    22 1   
    22     8    23 1   
    23     8    24 1   
    24     9    14 1   
    25     9    25 1   
    26     9    26 1   
    27    10    27 1   
    28    13    28 1   
@<TRIPOS>SUBSTRUCTURE
     1 OJM         1 TEMP              0 ****  ****    0 ROOT
