@<TRIPOS>MOLECULE
OJO
   35    36     1     0     0
SMALL
No Charge or Current Charge


@<TRIPOS>ATOM
      1 N1           7.1570    -3.0360    20.7790 n          1 OJO      -0.418800
      2 C4          10.4600    -1.6130    23.8530 ca         1 OJO      -0.040300
      3 C5           9.4210    -2.6980    23.5790 c3         1 OJO       0.209100
      4 C6           7.0020    -3.2390    23.3520 c6         1 OJO       0.145300
      5 C7           7.0600    -3.9460    21.9680 c6         1 OJO       0.063000
      6 C8           7.9180    -1.7610    20.9980 c6         1 OJO       0.063000
      7 C10          6.9900    -3.5750    19.4820 c          1 OJO       0.602100
      8 C11          7.1280    -2.6470    18.2720 c3         1 OJO      -0.172100
      9 O1           6.6900    -4.7510    19.3210 o          1 OJO      -0.613100
     10 C9           7.8150    -1.1610    22.4300 c6         1 OJO       0.145300
     11 N            8.0300    -2.1760    23.4960 n3         1 OJO      -0.722600
     12 C3          11.3950    -1.2530    22.8630 ca         1 OJO      -0.142000
     13 C2          12.3430    -0.2490    23.1180 ca         1 OJO       0.157000
     14 Cl          13.5040     0.1950    21.8740 cl         1 OJO      -0.209000
     15 C1          12.3670     0.4010    24.3610 ca         1 OJO      -0.134000
     16 C12         10.4890    -0.9550    25.0990 ca         1 OJO      -0.179000
     17 C           11.4390     0.0480    25.3510 ca         1 OJO       0.140100
     18 O           11.4640     0.6840    26.5560 oh         1 OJO      -0.534100
     19 H1           9.4870    -3.4370    24.3890 h1         1 OJO       0.044700
     20 H2           9.6930    -3.2250    22.6550 h1         1 OJO       0.044700
     21 H3           6.0000    -2.8010    23.4700 h1         1 OJO       0.063950
     22 H4           7.1060    -3.9930    24.1470 h1         1 OJO       0.063950
     23 H5           6.1660    -4.5780    21.8700 h1         1 OJO       0.059200
     24 H6           7.9270    -4.6220    21.9540 h1         1 OJO       0.059200
     25 H7           8.9770    -1.9470    20.7690 h1         1 OJO       0.059200
     26 H8           7.5710    -0.9920    20.2950 h1         1 OJO       0.059200
     27 H9           6.9030    -3.1540    17.3270 hc         1 OJO       0.061033
     28 H10          6.4880    -1.7690    18.4160 hc         1 OJO       0.061033
     29 H11          8.1340    -2.2150    18.2590 hc         1 OJO       0.061033
     30 H12          8.5280    -0.3290    22.5240 h1         1 OJO       0.063950
     31 H13          6.8140    -0.7190    22.5410 h1         1 OJO       0.063950
     32 H15         11.3870    -1.7470    21.8950 ha         1 OJO       0.129000
     33 H16         13.1020     1.1770    24.5540 ha         1 OJO       0.146000
     34 H17          9.7630    -1.2280    25.8620 ha         1 OJO       0.132000
     35 H18         10.7470     0.3170    27.1170 ho         1 OJO       0.467000
@<TRIPOS>BOND
     1     1     5 1   
     2     1     6 1   
     3     1     7 1   
     4     2     3 1   
     5     2    12 ar  
     6     2    16 ar  
     7     3    11 1   
     8     3    19 1   
     9     3    20 1   
    10     4     5 1   
    11     4    11 1   
    12     4    21 1   
    13     4    22 1   
    14     5    23 1   
    15     5    24 1   
    16     6    10 1   
    17     6    25 1   
    18     6    26 1   
    19     7     8 1   
    20     7     9 2   
    21     8    27 1   
    22     8    28 1   
    23     8    29 1   
    24    10    11 1   
    25    10    30 1   
    26    10    31 1   
    27    12    13 ar  
    28    12    32 1   
    29    13    14 1   
    30    13    15 ar  
    31    15    17 ar  
    32    15    33 1   
    33    16    17 ar  
    34    16    34 1   
    35    17    18 1   
    36    18    35 1   
@<TRIPOS>SUBSTRUCTURE
     1 OJO         1 TEMP              0 ****  ****    0 ROOT
