@<TRIPOS>MOLECULE
OJO
   35    36     1     0     0
SMALL
abcg2


@<TRIPOS>ATOM
      1 N1           7.3150    -3.2070    20.6500 n          1 OJO      -0.418800
      2 C4          10.5890    -1.5860    23.9020 ca         1 OJO      -0.040300
      3 C5           9.6810    -2.7090    23.4570 c3         1 OJO       0.209100
      4 C6           7.3400    -3.3250    23.0940 c6         1 OJO       0.145300
      5 C7           7.4140    -4.1200    21.7870 c6         1 OJO       0.063000
      6 C8           8.3120    -2.1380    20.6750 c6         1 OJO       0.063000
      7 C10          6.3340    -3.3430    19.7290 c          1 OJO       0.602100
      8 C11          6.2900    -2.3430    18.5930 c3         1 OJO      -0.172100
      9 O1           5.4950    -4.2500    19.7950 o          1 OJO      -0.613100
     10 C9           8.2260    -1.3790    22.0030 c6         1 OJO       0.145300
     11 N            8.3220    -2.2440    23.1800 n3         1 OJO      -0.722600
     12 C3          11.8500    -1.4410    23.3290 ca         1 OJO      -0.142000
     13 C2          12.6780    -0.4200    23.7790 ca         1 OJO       0.157000
     14 CL          14.2680    -0.2380    23.0590 cl         1 OJO      -0.209000
     15 C1          12.2920     0.4640    24.7700 ca         1 OJO      -0.134000
     16 C12         10.1780    -0.7060    24.9010 ca         1 OJO      -0.179000
     17 C           11.0230     0.3110    25.3300 ca         1 OJO       0.140100
     18 O           10.6680     1.1960    26.3030 oh         1 OJO      -0.534100
     19 H1           9.6080    -3.4450    24.2630 h1         1 OJO       0.044700
     20 H2          10.1530    -3.2210    22.6090 h1         1 OJO       0.044700
     21 H3           6.3440    -2.8800    23.1700 h1         1 OJO       0.063950
     22 H4           7.4770    -3.9970    23.9420 h1         1 OJO       0.063950
     23 H5           6.6020    -4.8380    21.7270 h1         1 OJO       0.059200
     24 H6           8.3620    -4.6630    21.7200 h1         1 OJO       0.059200
     25 H7           9.3050    -2.5820    20.5520 h1         1 OJO       0.059200
     26 H8           8.1550    -1.4500    19.8510 h1         1 OJO       0.059200
     27 H9           5.4840    -2.6310    17.9230 hc         1 OJO       0.061033
     28 H10          6.1020    -1.3340    18.9630 hc         1 OJO       0.061033
     29 H11          7.2290    -2.3250    18.0380 hc         1 OJO       0.061033
     30 H12          9.0140    -0.6260    22.0450 h1         1 OJO       0.063950
     31 H13          7.2640    -0.8600    22.0440 h1         1 OJO       0.063950
     32 H15         12.1780    -2.1080    22.5440 ha         1 OJO       0.129000
     33 H16         12.9450     1.2570    25.1070 ha         1 OJO       0.146000
     34 H17          9.1910    -0.8100    25.3360 ha         1 OJO       0.132000
     35 H18          9.7770     0.9980    26.6230 ho         1 OJO       0.467000
@<TRIPOS>BOND
     1     1     5 1   
     2     1     6 1   
     3     1     7 1   
     4     2     3 1   
     5     2    12 ar  
     6     2    16 ar  
     7     3    11 1   
     8     3    19 1   
     9     3    20 1   
    10     4     5 1   
    11     4    11 1   
    12     4    21 1   
    13     4    22 1   
    14     5    23 1   
    15     5    24 1   
    16     6    10 1   
    17     6    25 1   
    18     6    26 1   
    19     7     8 1   
    20     7     9 2   
    21     8    27 1   
    22     8    28 1   
    23     8    29 1   
    24    10    11 1   
    25    10    30 1   
    26    10    31 1   
    27    12    13 ar  
    28    12    32 1   
    29    13    14 1   
    30    13    15 ar  
    31    15    17 ar  
    32    15    33 1   
    33    16    17 ar  
    34    16    34 1   
    35    17    18 1   
    36    18    35 1   
@<TRIPOS>SUBSTRUCTURE
     1 OJO         1 TEMP              0 ****  ****    0 ROOT
