@<TRIPOS>MOLECULE
OJP
   33    33     1     0     0
SMALL
abcg2


@<TRIPOS>ATOM
      1 CB           4.2510     0.3020    -1.0020 cc         1 OJP      -0.191000
      2 CA           4.4170    -0.2890     0.2160 cd         1 OJP       0.234300
      3 C1           2.4610     0.5890     0.2500 cc         1 OJP       0.400800
      4 C2          -7.3800    -0.1210    -0.0710 c2         1 OJP      -0.232000
      5 C3          -6.1750     0.3120     0.2770 ce         1 OJP      -0.301200
      6 C4          -4.9390    -0.2240    -0.3540 c          1 OJP       0.598300
      7 C            5.5940    -1.0420     0.7330 c3         1 OJP       0.144300
      8 C5           1.0900     1.0120     0.6470 c3         1 OJP      -0.105700
      9 C6          -0.0110     0.2380    -0.0810 c3         1 OJP      -0.074400
     10 C7          -1.3990     0.6610     0.3780 c3         1 OJP      -0.096400
     11 C8          -2.4920    -0.1080    -0.3460 c3         1 OJP       0.106000
     12 N9           2.9980     0.8550    -0.9590 na         1 OJP      -0.303500
     13 N            3.3000    -0.1050     0.9840 nd         1 OJP      -0.678000
     14 N10         -3.8000     0.3030     0.1180 ns         1 OJP      -0.506900
     15 O11         -4.9580    -1.0790    -1.2330 o          1 OJP      -0.608100
     16 O            6.6080    -1.0140    -0.2410 oh         1 OJP      -0.667000
     17 H1           4.8840     0.3850    -1.8680 h4         1 OJP       0.168000
     18 H2          -7.5140    -0.8810    -0.8300 ha         1 OJP       0.176000
     19 H3          -8.2730     0.2700     0.3960 ha         1 OJP       0.176000
     20 H4          -6.0670     1.0730     1.0420 ha         1 OJP       0.173000
     21 H5           5.9230    -0.5910     1.6800 h1         1 OJP       0.033700
     22 H6           5.2910    -2.0700     0.9760 h1         1 OJP       0.033700
     23 H7           0.9940     0.8610     1.7240 hc         1 OJP       0.061700
     24 H8           0.9630     2.0830     0.4650 hc         1 OJP       0.061700
     25 H9           0.0790     0.3930    -1.1600 hc         1 OJP       0.048700
     26 H10          0.1240    -0.8340     0.0920 hc         1 OJP       0.048700
     27 H11         -1.4910     0.4990     1.4570 hc         1 OJP       0.043700
     28 H12         -1.5300     1.7340     0.2070 hc         1 OJP       0.043700
     29 H13         -2.4110     0.0600    -1.4240 h1         1 OJP       0.052200
     30 H14         -2.3610    -1.1820    -0.1840 h1         1 OJP       0.052200
     31 H15          2.5650     1.3810    -1.7010 hn         1 OJP       0.349000
     32 H17         -3.8490     0.9880     0.8550 hn         1 OJP       0.312500
     33 H18          7.3510    -1.5290     0.0840 ho         1 OJP       0.446000
@<TRIPOS>BOND
     1     1     2 2   
     2     1    12 1   
     3     1    17 1   
     4     2     7 1   
     5     2    13 1   
     6     3     8 1   
     7     3    12 1   
     8     3    13 2   
     9     4     5 2   
    10     4    18 1   
    11     4    19 1   
    12     5     6 1   
    13     5    20 1   
    14     6    14 1   
    15     6    15 2   
    16     7    16 1   
    17     7    21 1   
    18     7    22 1   
    19     8     9 1   
    20     8    23 1   
    21     8    24 1   
    22     9    10 1   
    23     9    25 1   
    24     9    26 1   
    25    10    11 1   
    26    10    27 1   
    27    10    28 1   
    28    11    14 1   
    29    11    29 1   
    30    11    30 1   
    31    12    31 1   
    32    14    32 1   
    33    16    33 1   
@<TRIPOS>SUBSTRUCTURE
     1 OJP         1 TEMP              0 ****  ****    0 ROOT
