@<TRIPOS>MOLECULE
OJP
   33    33     1     0     0
SMALL
No Charge or Current Charge


@<TRIPOS>ATOM
      1 CB           4.3470     0.3270    -1.1120 cc         1 OJP      -0.191000
      2 CA           4.4530    -0.3590     0.0720 cd         1 OJP       0.234300
      3 C1           2.5090     0.5850     0.1160 cc         1 OJP       0.400800
      4 C2          -7.5240    -0.0260     0.0370 c2         1 OJP      -0.232000
      5 C3          -6.2520     0.3610     0.3050 ce         1 OJP      -0.301200
      6 C4          -5.0380    -0.2870    -0.2680 c          1 OJP       0.598300
      7 C            5.6290    -1.2020     0.5420 c3         1 OJP       0.144300
      8 C5           1.1360     1.0360     0.5340 c3         1 OJP      -0.105700
      9 C6           0.0020     0.1910    -0.0900 c3         1 OJP      -0.074400
     10 C7          -1.4060     0.6560     0.3410 c3         1 OJP      -0.096400
     11 C8          -2.5330    -0.1900    -0.2830 c3         1 OJP       0.106000
     12 N9           3.1030     0.9250    -1.0730 na         1 OJP      -0.303500
     13 N            3.3040    -0.1950     0.8280 nd         1 OJP      -0.678000
     14 N10         -3.8530     0.2720     0.1430 ns         1 OJP      -0.506900
     15 O11         -5.0840    -1.2350    -1.0380 o          1 OJP      -0.608100
     16 O            6.7950    -0.4080     0.8330 oh         1 OJP      -0.667000
     17 H1           5.0400     0.4250    -1.9390 h4         1 OJP       0.168000
     18 H2          -7.7460    -0.8590    -0.6330 ha         1 OJP       0.176000
     19 H3          -8.3840     0.4800     0.4800 ha         1 OJP       0.176000
     20 H4          -6.0700     1.1970     0.9790 ha         1 OJP       0.173000
     21 H5           5.3250    -1.7670     1.4340 h1         1 OJP       0.033700
     22 H6           5.8590    -1.9350    -0.2430 h1         1 OJP       0.033700
     23 H7           1.0570     0.9950     1.6270 hc         1 OJP       0.061700
     24 H8           1.0010     2.0880     0.2550 hc         1 OJP       0.061700
     25 H9           0.0790     0.2370    -1.1840 hc         1 OJP       0.048700
     26 H10          0.1400    -0.8600     0.1960 hc         1 OJP       0.048700
     27 H11         -1.4840     0.6060     1.4350 hc         1 OJP       0.043700
     28 H12         -1.5450     1.7060     0.0540 hc         1 OJP       0.043700
     29 H13         -2.4730    -0.1330    -1.3780 h1         1 OJP       0.052200
     30 H14         -2.4130    -1.2410     0.0150 h1         1 OJP       0.052200
     31 H15          2.6860     1.5140    -1.7850 hn         1 OJP       0.349000
     32 H17         -3.9120     1.0550     0.7820 hn         1 OJP       0.312500
     33 H18          7.4930    -1.0270     1.1440 ho         1 OJP       0.446000
@<TRIPOS>BOND
     1     1     2 2   
     2     1    12 1   
     3     1    17 1   
     4     2     7 1   
     5     2    13 1   
     6     3     8 1   
     7     3    12 1   
     8     3    13 2   
     9     4     5 2   
    10     4    18 1   
    11     4    19 1   
    12     5     6 1   
    13     5    20 1   
    14     6    14 1   
    15     6    15 2   
    16     7    16 1   
    17     7    21 1   
    18     7    22 1   
    19     8     9 1   
    20     8    23 1   
    21     8    24 1   
    22     9    10 1   
    23     9    25 1   
    24     9    26 1   
    25    10    11 1   
    26    10    27 1   
    27    10    28 1   
    28    11    14 1   
    29    11    29 1   
    30    11    30 1   
    31    12    31 1   
    32    14    32 1   
    33    16    33 1   
@<TRIPOS>SUBSTRUCTURE
     1 OJP         1 TEMP              0 ****  ****    0 ROOT
