@<TRIPOS>MOLECULE
OJQ
   35    36     1     0     0
SMALL
No Charge or Current Charge


@<TRIPOS>ATOM
      1 C3           5.8020    27.6170   -12.3470 ca         1 OJQ       0.074100
      2 C4           4.6640    26.9440   -11.8350 ca         1 OJQ      -0.123300
      3 C5           4.7580    25.5310   -11.6720 ca         1 OJQ      -0.088300
      4 C6           5.9580    24.8850   -12.0290 ca         1 OJQ       0.323900
      5 C2           6.9660    26.8660   -12.6700 ca         1 OJQ       0.317300
      6 N            2.7310    28.1540   -12.7360 nu         1 OJQ      -0.847200
      7 CA           1.3900    28.5580   -12.8540 cc         1 OJQ       0.047000
      8 C            0.7930    29.1060   -14.0220 cc         1 OJQ       0.473300
      9 O            1.4730    29.3020   -15.1600 oh         1 OJQ      -0.644300
     10 CB           0.3530    28.5430   -11.9660 cd         1 OJQ       0.251900
     11 OG          -0.7850    29.0500   -12.5580 os         1 OJQ      -0.085700
     12 ND          -0.4790    29.4200   -13.9210 nd         1 OJQ      -0.478300
     13 C2A          8.2160    27.5380   -13.2230 c3         1 OJQ      -0.126400
     14 C4A          3.4000    27.7370   -11.4950 c3         1 OJQ       0.192100
     15 C5A          3.6440    24.6480   -11.1050 c3         1 OJQ       0.258900
     16 N1           7.0440    25.5250   -12.5150 nb         1 OJQ      -0.659000
     17 O1           5.7770    28.9810   -12.5330 oh         1 OJQ      -0.551100
     18 O1P          0.9660    23.5700   -13.7120 o          1 OJQ      -0.840000
     19 O2P          0.8540    25.3800   -12.0160 o          1 OJQ      -0.840000
     20 O3P          2.4930    25.5540   -13.8950 oh         1 OJQ      -0.803400
     21 O4P          2.9750    23.9430   -12.1600 os         1 OJQ      -0.591400
     22 P            1.7160    24.5860   -12.9240 p5         1 OJQ       1.398800
     23 H6           6.0570    23.8060   -11.9130 h4         1 OJQ       0.029100
     24 H1           2.3660    26.3490   -13.3320 ho         1 OJQ       0.460000
     25 H4           0.8050    29.6840   -15.7650 ho         1 OJQ       0.479000
     26 HB1          0.2900    28.2100   -10.9390 h4         1 OJQ       0.135100
     27 H2A3         9.0220    26.8190   -13.4120 hc         1 OJQ       0.044700
     28 H2A1         7.9970    28.0470   -14.1680 hc         1 OJQ       0.044700
     29 H2A2         8.5980    28.2860   -12.5190 hc         1 OJQ       0.044700
     30 H4A          3.6710    28.6200   -10.8990 h1         1 OJQ       0.058700
     31 H2           2.7090    27.1590   -10.8730 h1         1 OJQ       0.058700
     32 H5A2         2.9390    25.2180   -10.4900 h1         1 OJQ       0.040700
     33 H5A1         4.1030    23.9200   -10.4230 h1         1 OJQ       0.040700
     34 H3           4.8770    29.3100   -12.3220 ho         1 OJQ       0.461000
     35 H12          3.3040    28.2870   -13.5770 hn         1 OJQ       0.440000
@<TRIPOS>BOND
     1     1     2 ar  
     2     1     5 ar  
     3     1    17 1   
     4     2     3 ar  
     5     2    14 1   
     6     3     4 ar  
     7     3    15 1   
     8     4    16 ar  
     9     4    23 1   
    10     5    13 1   
    11     5    16 ar  
    12     6     7 1   
    13     6    14 1   
    14     6    35 1   
    15     7     8 1   
    16     7    10 2   
    17     8     9 1   
    18     8    12 2   
    19     9    25 1   
    20    10    11 1   
    21    10    26 1   
    22    11    12 1   
    23    13    27 1   
    24    13    28 1   
    25    13    29 1   
    26    14    30 1   
    27    14    31 1   
    28    15    21 1   
    29    15    32 1   
    30    15    33 1   
    31    17    34 1   
    32    18    22 1   
    33    19    22 1   
    34    20    22 1   
    35    20    24 1   
    36    21    22 1   
@<TRIPOS>SUBSTRUCTURE
     1 OJQ         1 TEMP              0 ****  ****    0 ROOT
