@<TRIPOS>MOLECULE
OJQ
   35    36     1     0     0
SMALL
abcg2


@<TRIPOS>ATOM
      1 C3           5.6830    27.5680   -12.6240 ca         1 OJQ       0.074100
      2 C4           4.6030    26.9530   -11.9850 ca         1 OJQ      -0.123300
      3 C5           4.8030    25.6630   -11.4740 ca         1 OJQ      -0.088300
      4 C6           6.0530    25.0810   -11.6520 ca         1 OJQ       0.323900
      5 C2           6.9050    26.8950   -12.7730 ca         1 OJQ       0.317300
      6 N            2.5890    27.6380   -13.2140 nu         1 OJQ      -0.847200
      7 CA           1.3600    28.3320   -13.2300 cc         1 OJQ       0.047000
      8 C            1.0950    29.6460   -13.7230 cc         1 OJQ       0.473300
      9 O            2.0230    30.4250   -14.2880 oh         1 OJQ      -0.644300
     10 CB           0.1570    27.9250   -12.7590 cd         1 OJQ       0.251900
     11 OG          -0.7630    28.8900   -12.9370 os         1 OJQ      -0.085700
     12 ND          -0.1570    29.9940   -13.5740 nd         1 OJQ      -0.478300
     13 C2A          8.0540    27.5530   -13.4740 c3         1 OJQ      -0.126400
     14 C4A          3.2860    27.6760   -11.9000 c3         1 OJQ       0.192100
     15 C5A          3.7530    24.8640   -10.7410 c3         1 OJQ       0.258900
     16 N1           7.0690    25.6640   -12.2890 nb         1 OJQ      -0.659000
     17 O1           5.6210    28.8230   -13.1580 oh         1 OJQ      -0.551100
     18 O1P          1.1450    22.8730   -12.7230 o          1 OJQ      -0.840000
     19 O2P          0.8750    25.1410   -11.4720 o          1 OJQ      -0.840000
     20 O3P          2.1150    24.9640   -13.6940 oh         1 OJQ      -0.803400
     21 O4P          3.1030    23.9040   -11.5860 os         1 OJQ      -0.591400
     22 P            1.6790    24.2120   -12.3340 p5         1 OJQ       1.398800
     23 H6           6.2390    24.0880   -11.2550 h4         1 OJQ       0.029100
     24 H1           2.2890    25.9370   -13.5570 ho         1 OJQ       0.460000
     25 H4           1.6330    31.2720   -14.5560 ho         1 OJQ       0.479000
     26 HB1         -0.1460    27.0060   -12.2800 h4         1 OJQ       0.135100
     27 H2A3         8.9140    26.8870   -13.4690 hc         1 OJQ       0.044700
     28 H2A1         7.7970    27.7980   -14.5070 hc         1 OJQ       0.044700
     29 H2A2         8.3250    28.4920   -12.9840 hc         1 OJQ       0.044700
     30 H4A          3.4280    28.7110   -11.5640 h1         1 OJQ       0.058700
     31 H2           2.6280    27.1990   -11.1820 h1         1 OJQ       0.058700
     32 H5A2         3.0060    25.5010   -10.2710 h1         1 OJQ       0.040700
     33 H5A1         4.2430    24.2850    -9.9580 h1         1 OJQ       0.040700
     34 H3           4.8470    29.3080   -12.8430 ho         1 OJQ       0.461000
     35 H12          3.1940    27.9880   -13.9490 hn         1 OJQ       0.440000
@<TRIPOS>BOND
     1     1     2 ar  
     2     1     5 ar  
     3     1    17 1   
     4     2     3 ar  
     5     2    14 1   
     6     3     4 ar  
     7     3    15 1   
     8     4    16 ar  
     9     4    23 1   
    10     5    13 1   
    11     5    16 ar  
    12     6     7 1   
    13     6    14 1   
    14     6    35 1   
    15     7     8 1   
    16     7    10 2   
    17     8     9 1   
    18     8    12 2   
    19     9    25 1   
    20    10    11 1   
    21    10    26 1   
    22    11    12 1   
    23    13    27 1   
    24    13    28 1   
    25    13    29 1   
    26    14    30 1   
    27    14    31 1   
    28    15    21 1   
    29    15    32 1   
    30    15    33 1   
    31    17    34 1   
    32    18    22 1   
    33    19    22 1   
    34    20    22 1   
    35    20    24 1   
    36    21    22 1   
@<TRIPOS>SUBSTRUCTURE
     1 OJQ         1 TEMP              0 ****  ****    0 ROOT
