@<TRIPOS>MOLECULE
OJR
   65    69     1     0     0
SMALL
abcg2


@<TRIPOS>ATOM
      1 N1         -22.7970   -11.8060   -10.1330 na         1 OJR      -0.169700
      2 C2         -19.3530   -12.5390   -12.4070 ca         1 OJR      -0.105500
      3 N3         -22.3330    -9.7900   -10.3240 nc         1 OJR      -0.028000
      4 C4         -19.4520   -13.7240   -14.6400 c6         1 OJR      -0.021400
      5 N4         -21.5640   -10.2660    -9.3450 nc         1 OJR      -0.431000
      6 C5         -20.1520   -12.6040   -15.4170 c6         1 OJR      -0.069900
      7 C6         -19.8250   -12.6970   -16.8990 c6         1 OJR       0.159800
      8 C11        -20.4630   -13.5080    -8.9300 cp         1 OJR      -0.024000
      9 C12        -21.2470   -12.5270    -8.3250 ca         1 OJR      -0.066500
     10 C13        -21.8660   -11.5370    -9.2220 cd         1 OJR       0.443000
     11 O1         -22.7240   -11.3560    -4.8650 o          1 OJR      -0.532500
     12 O          -23.5920   -11.0520    -7.1840 o          1 OJR      -0.532500
     13 N5         -21.5770    -9.7990    -6.4040 n8         1 OJR      -0.990100
     14 C14        -21.4330   -12.5100    -6.9270 ca         1 OJR      -0.252500
     15 N2         -23.0740   -10.7050   -10.8070 nd         1 OJR      -0.183800
     16 C15        -20.8390   -13.4800    -6.1150 ca         1 OJR       0.030700
     17 C16        -20.9620   -13.6560    -4.6230 c3         1 OJR      -0.053100
     18 C17        -21.8940   -14.8210    -4.2560 c6         1 OJR      -0.046700
     19 C21        -23.3250   -14.6570    -4.7620 c6         1 OJR      -0.115900
     20 C20        -24.1830   -15.8440    -4.3290 c6         1 OJR       0.150300
     21 N6         -24.1800   -16.0860    -2.8950 n7         1 OJR      -0.844400
     22 C19        -22.8270   -16.2050    -2.3730 c6         1 OJR       0.150300
     23 C18        -21.9100   -15.0420    -2.7460 c6         1 OJR      -0.115900
     24 C22        -20.0680   -14.4560    -6.7580 ca         1 OJR      -0.121000
     25 C23        -19.8820   -14.4800    -8.1190 ca         1 OJR      -0.055000
     26 C          -20.2210   -13.5410   -10.3900 cp         1 OJR      -0.077000
     27 C10        -20.5840   -14.6610   -11.1320 ca         1 OJR      -0.095500
     28 C9         -20.3420   -14.7100   -12.4970 ca         1 OJR      -0.105500
     29 C3         -19.7240   -13.6540   -13.1600 ca         1 OJR      -0.055300
     30 C1         -19.5960   -12.4810   -11.0450 ca         1 OJR      -0.095500
     31 C8         -17.9520   -13.7070   -14.9500 c6         1 OJR      -0.069900
     32 C7         -17.7130   -13.7500   -16.4530 c6         1 OJR       0.159800
     33 N          -18.3880   -12.6370   -17.0950 n7         1 OJR      -0.862400
     34 H1         -23.2710   -12.6770   -10.3350 hn         1 OJR       0.397000
     35 H2         -18.8600   -11.7020   -12.8860 ha         1 OJR       0.121000
     36 H3         -19.8540   -14.6770   -15.0050 hc         1 OJR       0.047700
     37 H4         -19.8310   -11.6300   -15.0380 hc         1 OJR       0.050950
     38 H5         -21.2330   -12.6660   -15.2720 hc         1 OJR       0.050950
     39 H6         -20.2900   -11.8670   -17.4360 h1         1 OJR       0.030200
     40 H7         -20.2680   -13.6240   -17.3020 h1         1 OJR       0.030200
     41 H8         -20.7760    -9.7800    -5.7810 hn         1 OJR       0.493000
     42 H9         -21.3210    -9.5650    -7.3620 hn         1 OJR       0.493000
     43 H10        -19.9640   -13.8980    -4.2450 hc         1 OJR       0.071700
     44 H11        -21.2740   -12.7530    -4.1130 hc         1 OJR       0.071700
     45 H12        -21.4860   -15.7310    -4.7180 hc         1 OJR       0.040700
     46 H13        -23.7570   -13.7340    -4.3640 hc         1 OJR       0.050700
     47 H14        -23.3480   -14.5700    -5.8530 hc         1 OJR       0.050700
     48 H15        -25.2150   -15.7040    -4.6570 h1         1 OJR       0.050700
     49 H16        -23.8210   -16.7510    -4.8270 h1         1 OJR       0.050700
     50 H17        -24.6380   -15.3070    -2.4340 hn         1 OJR       0.407000
     51 H19        -22.3960   -17.1360    -2.7580 h1         1 OJR       0.050700
     52 H20        -22.8790   -16.3140    -1.2880 h1         1 OJR       0.050700
     53 H21        -20.8970   -15.2380    -2.3800 hc         1 OJR       0.050700
     54 H22        -22.2530   -14.1280    -2.2470 hc         1 OJR       0.050700
     55 H23        -19.5940   -15.2150    -6.1490 ha         1 OJR       0.123000
     56 H24        -19.2620   -15.2460    -8.5670 ha         1 OJR       0.129000
     57 H25        -21.0710   -15.4960   -10.6430 ha         1 OJR       0.121000
     58 H26        -20.6420   -15.5880   -13.0570 ha         1 OJR       0.121000
     59 H27        -19.2810   -11.6090   -10.4860 ha         1 OJR       0.121000
     60 H28        -17.4590   -14.5580   -14.4730 hc         1 OJR       0.050950
     61 H29        -17.4980   -12.8000   -14.5410 hc         1 OJR       0.050950
     62 H30        -18.0520   -14.7280   -16.8380 h1         1 OJR       0.030200
     63 H31        -16.6430   -13.6830   -16.6600 h1         1 OJR       0.030200
     64 H32        -18.1810   -12.6420   -18.0850 hn         1 OJR       0.412000
     65 S          -22.4610   -11.1740    -6.2790 sy         1 OJR       1.130600
@<TRIPOS>BOND
     1     1    10 1   
     2     1    15 1   
     3     1    34 1   
     4     2    29 ar  
     5     2    30 ar  
     6     2    35 1   
     7     3     5 1   
     8     3    15 2   
     9     4     6 1   
    10     4    29 1   
    11     4    31 1   
    12     4    36 1   
    13     5    10 2   
    14     6     7 1   
    15     6    37 1   
    16     6    38 1   
    17     7    33 1   
    18     7    39 1   
    19     7    40 1   
    20     8     9 ar  
    21     8    25 ar  
    22     8    26 1   
    23     9    10 1   
    24     9    14 ar  
    25    11    65 2   
    26    12    65 2   
    27    13    41 1   
    28    13    42 1   
    29    13    65 1   
    30    14    16 ar  
    31    14    65 1   
    32    16    17 1   
    33    16    24 ar  
    34    17    18 1   
    35    17    43 1   
    36    17    44 1   
    37    18    19 1   
    38    18    23 1   
    39    18    45 1   
    40    19    20 1   
    41    19    46 1   
    42    19    47 1   
    43    20    21 1   
    44    20    48 1   
    45    20    49 1   
    46    21    22 1   
    47    21    50 1   
    48    22    23 1   
    49    22    51 1   
    50    22    52 1   
    51    23    53 1   
    52    23    54 1   
    53    24    25 ar  
    54    24    55 1   
    55    25    56 1   
    56    26    27 ar  
    57    26    30 ar  
    58    27    28 ar  
    59    27    57 1   
    60    28    29 ar  
    61    28    58 1   
    62    30    59 1   
    63    31    32 1   
    64    31    60 1   
    65    31    61 1   
    66    32    33 1   
    67    32    62 1   
    68    32    63 1   
    69    33    64 1   
@<TRIPOS>SUBSTRUCTURE
     1 OJR         1 TEMP              0 ****  ****    0 ROOT
