@<TRIPOS>MOLECULE
OJR
   65    69     1     0     0
SMALL
No Charge or Current Charge


@<TRIPOS>ATOM
      1 N1         -22.5650   -11.5550   -10.3670 na         1 OJR      -0.169700
      2 C2         -19.2470   -12.5860   -12.4530 ca         1 OJR      -0.105500
      3 N3         -22.0010    -9.5240   -10.2200 nc         1 OJR      -0.028000
      4 C4         -19.3990   -13.7270   -14.7440 c6         1 OJR      -0.021400
      5 N4         -21.3940   -10.1660    -9.1670 nc         1 OJR      -0.431000
      6 C5         -20.0660   -12.5500   -15.5070 c6         1 OJR      -0.069900
      7 C6         -19.7510   -12.6160   -17.0220 c6         1 OJR       0.159800
      8 C11        -20.5250   -13.5580    -8.9790 cp         1 OJR      -0.024000
      9 C12        -21.2840   -12.5130    -8.3770 ca         1 OJR      -0.066500
     10 C13        -21.7800   -11.4260    -9.2550 cd         1 OJR       0.443000
     11 O1         -23.0200   -11.4950    -4.8660 o          1 OJR      -0.532500
     12 O          -23.6780   -10.8630    -7.2340 o          1 OJR      -0.532500
     13 N5         -21.6960    -9.9190    -6.1860 n8         1 OJR      -0.990100
     14 C14        -21.5400   -12.5210    -6.9560 ca         1 OJR      -0.252500
     15 N2         -22.7030   -10.3400   -10.9600 nd         1 OJR      -0.183800
     16 C15        -20.9430   -13.5600    -6.1610 ca         1 OJR       0.030700
     17 C16        -21.0020   -13.7010    -4.6310 c3         1 OJR      -0.053100
     18 C17        -21.8980   -14.8770    -4.1210 c6         1 OJR      -0.046700
     19 C21        -23.3710   -14.8030    -4.6070 c6         1 OJR      -0.115900
     20 C20        -24.1950   -15.9970    -4.0670 c6         1 OJR       0.150300
     21 N6         -24.1310   -16.0560    -2.5860 n7         1 OJR      -0.844400
     22 C19        -22.7420   -16.1710    -2.0800 c6         1 OJR       0.150300
     23 C18        -21.8700   -14.9900    -2.5730 c6         1 OJR      -0.115900
     24 C22        -20.1960   -14.5700    -6.7950 ca         1 OJR      -0.121000
     25 C23        -20.0080   -14.5830    -8.1740 ca         1 OJR      -0.055000
     26 C          -20.2310   -13.5920   -10.4420 cp         1 OJR      -0.077000
     27 C10        -20.6500   -14.6870   -11.2330 ca         1 OJR      -0.095500
     28 C9         -20.3830   -14.7270   -12.6120 ca         1 OJR      -0.105500
     29 C3         -19.6820   -13.6750   -13.2350 ca         1 OJR      -0.055300
     30 C1         -19.5150   -12.5480   -11.0740 ca         1 OJR      -0.095500
     31 C8         -17.8780   -13.7540   -15.0550 c6         1 OJR      -0.069900
     32 C7         -17.6210   -13.7880   -16.5830 c6         1 OJR       0.159800
     33 N          -18.2890   -12.6540   -17.2670 n7         1 OJR      -0.862400
     34 H1         -22.9840   -12.4010   -10.7300 hn         1 OJR       0.397000
     35 H2         -18.6990   -11.7660   -12.9090 ha         1 OJR       0.121000
     36 H3         -19.8290   -14.6570   -15.1420 hc         1 OJR       0.047700
     37 H4         -19.7160   -11.5890   -15.1070 hc         1 OJR       0.050950
     38 H5         -21.1540   -12.5740   -15.3550 hc         1 OJR       0.050950
     39 H6         -20.1850   -11.7410   -17.5270 h1         1 OJR       0.030200
     40 H7         -20.2170   -13.5150   -17.4530 h1         1 OJR       0.030200
     41 H8         -21.4190    -9.8240    -7.1630 hn         1 OJR       0.493000
     42 H9         -22.3840    -9.1790    -6.0800 hn         1 OJR       0.493000
     43 H10        -19.9790   -13.9010    -4.2870 hc         1 OJR       0.071700
     44 H11        -21.2300   -12.7700    -4.1140 hc         1 OJR       0.071700
     45 H12        -21.4560   -15.7970    -4.5310 hc         1 OJR       0.040700
     46 H13        -23.8360   -13.8690    -4.2680 hc         1 OJR       0.050700
     47 H14        -23.4140   -14.7990    -5.7040 hc         1 OJR       0.050700
     48 H15        -25.2420   -15.8980    -4.3890 h1         1 OJR       0.050700
     49 H16        -23.8060   -16.9350    -4.4910 h1         1 OJR       0.050700
     50 H17        -24.5330   -15.1860    -2.2160 hn         1 OJR       0.407000
     51 H19        -22.3020   -17.1200    -2.4250 h1         1 OJR       0.050700
     52 H20        -22.7480   -16.1920    -0.9800 h1         1 OJR       0.050700
     53 H21        -20.8380   -15.1300    -2.2230 hc         1 OJR       0.050700
     54 H22        -22.2280   -14.0550    -2.1210 hc         1 OJR       0.050700
     55 H23        -19.7450   -15.3650    -6.2050 ha         1 OJR       0.123000
     56 H24        -19.4210   -15.3790    -8.6260 ha         1 OJR       0.129000
     57 H25        -21.1950   -15.5070   -10.7710 ha         1 OJR       0.121000
     58 H26        -20.7240   -15.5790   -13.1950 ha         1 OJR       0.121000
     59 H27        -19.1630   -11.7030   -10.4870 ha         1 OJR       0.121000
     60 H28        -17.4140   -14.6310   -14.5840 hc         1 OJR       0.050950
     61 H29        -17.3840   -12.8710   -14.6260 hc         1 OJR       0.050950
     62 H30        -17.9970   -14.7360   -16.9960 h1         1 OJR       0.030200
     63 H31        -16.5390   -13.7470   -16.7750 h1         1 OJR       0.030200
     64 H32        -18.1240   -12.7340   -18.2790 hn         1 OJR       0.412000
     65 S          -22.6610   -11.2370    -6.2560 sy         1 OJR       1.130600
@<TRIPOS>BOND
     1     1    10 1   
     2     1    15 1   
     3     1    34 1   
     4     2    29 ar  
     5     2    30 ar  
     6     2    35 1   
     7     3     5 1   
     8     3    15 2   
     9     4     6 1   
    10     4    29 1   
    11     4    31 1   
    12     4    36 1   
    13     5    10 2   
    14     6     7 1   
    15     6    37 1   
    16     6    38 1   
    17     7    33 1   
    18     7    39 1   
    19     7    40 1   
    20     8     9 ar  
    21     8    25 ar  
    22     8    26 1   
    23     9    10 1   
    24     9    14 ar  
    25    11    65 2   
    26    12    65 2   
    27    13    41 1   
    28    13    42 1   
    29    13    65 1   
    30    14    16 ar  
    31    14    65 1   
    32    16    17 1   
    33    16    24 ar  
    34    17    18 1   
    35    17    43 1   
    36    17    44 1   
    37    18    19 1   
    38    18    23 1   
    39    18    45 1   
    40    19    20 1   
    41    19    46 1   
    42    19    47 1   
    43    20    21 1   
    44    20    48 1   
    45    20    49 1   
    46    21    22 1   
    47    21    50 1   
    48    22    23 1   
    49    22    51 1   
    50    22    52 1   
    51    23    53 1   
    52    23    54 1   
    53    24    25 ar  
    54    24    55 1   
    55    25    56 1   
    56    26    27 ar  
    57    26    30 ar  
    58    27    28 ar  
    59    27    57 1   
    60    28    29 ar  
    61    28    58 1   
    62    30    59 1   
    63    31    32 1   
    64    31    60 1   
    65    31    61 1   
    66    32    33 1   
    67    32    62 1   
    68    32    63 1   
    69    33    64 1   
@<TRIPOS>SUBSTRUCTURE
     1 OJR         1 TEMP              0 ****  ****    0 ROOT
