@<TRIPOS>MOLECULE
OJT
   83    88     1     0     0
SMALL
bcc


@<TRIPOS>ATOM
      1 C1          27.4180     0.2630     8.8480 c3         1 OJT       0.002100
      2 C2          27.9110     1.2550     9.8990 c3         1 OJT      -0.013100
      3 C3          27.2500     1.0770    11.2370 ca         1 OJT      -0.087300
      4 C4          27.5790     0.0000    12.0770 ca         1 OJT       0.135100
      5 O1          28.5380    -0.8330    11.6220 os         1 OJT      -0.301900
      6 C5          28.9230    -1.9300    12.4220 c3         1 OJT       0.129700
      7 C6          26.9290    -0.1640    13.2970 ca         1 OJT      -0.227000
      8 C7          25.9510     0.7430    13.6910 ca         1 OJT      -0.112000
      9 C8          25.6190     1.8130    12.8790 ca         1 OJT      -0.169000
     10 C9          26.2730     1.9640    11.6610 ca         1 OJT      -0.089000
     11 O2          25.9960     0.4100     8.7970 os         1 OJT      -0.400100
     12 C10         25.2810    -0.4910     8.1760 ca         1 OJT       0.789600
     13 N1          25.8110    -1.6420     7.8080 nb         1 OJT      -0.791000
     14 C11         25.0230    -2.5580     7.2510 ca         1 OJT       0.708900
     15 N2          23.7310    -2.4600     7.0220 nb         1 OJT      -0.747000
     16 C12         23.2080    -1.2930     7.3880 ca         1 OJT       0.499600
     17 C13         23.9080    -0.2310     7.9580 ca         1 OJT      -0.342400
     18 C14         23.0760     0.9050     8.2390 cc         1 OJT       0.080600
     19 C15         21.7790     0.6690     7.8870 cd         1 OJT      -0.066600
     20 S1          21.5350    -0.9150     7.2060 ss         1 OJT      -0.145900
     21 C16         20.6210     1.5570     8.0300 ca         1 OJT       0.009200
     22 C17         19.4200     1.0500     8.5280 ca         1 OJT      -0.124000
     23 C18         18.3290     1.8900     8.6750 ca         1 OJT       0.026400
     24 CL1         16.8470     1.2440     9.2990 cl         1 OJT      -0.132400
     25 C19         18.4010     3.2330     8.3450 ca         1 OJT      -0.132000
     26 C20         19.5970     3.7310     7.8460 ca         1 OJT      -0.122000
     27 C21         20.6980     2.9060     7.6820 ca         1 OJT      -0.103000
     28 C22         23.5390     2.1880     8.8060 ca         1 OJT      -0.065800
     29 C23         23.0770     2.6570    10.0450 ca         1 OJT      -0.002300
     30 C24         22.1830     1.8390    10.9260 c3         1 OJT      -0.049800
     31 C25         23.4860     3.9240    10.4490 ca         1 OJT      -0.032600
     32 CL2         22.9280     4.5630    11.9610 cl         1 OJT      -0.127400
     33 C26         24.3510     4.7220     9.6940 ca         1 OJT       0.150100
     34 O3          24.6780     5.9150    10.2030 os         1 OJT      -0.315900
     35 C27         25.5160     6.7790     9.4490 c3         1 OJT       0.143400
     36 C28         25.7590     8.0610    10.2150 c3         1 OJT       0.172800
     37 N3          24.5850     8.9020    10.3620 n3         1 OJT      -0.721600
     38 C29         24.9160    10.3160    10.3080 c6         1 OJT       0.166300
     39 C30         23.6600    11.1640    10.3710 c6         1 OJT       0.162800
     40 N4          22.9100    10.8840    11.5780 n3         1 OJT      -0.718600
     41 C31         21.7330    11.7130    11.6800 c3         1 OJT       0.155100
     42 C32         22.5810     9.4760    11.6410 c6         1 OJT       0.162800
     43 C33         23.8330     8.6230    11.5740 c6         1 OJT       0.166300
     44 C34         24.8180     4.2210     8.4830 ca         1 OJT      -0.220000
     45 C35         24.4090     2.9700     8.0570 ca         1 OJT      -0.038000
     46 C36         28.0590     0.5350     7.4640 c          1 OJT       0.930600
     47 O4          29.2930     0.3770     7.4400 o          1 OJT      -0.815800
     48 O5          27.3070     0.8880     6.5420 o          1 OJT      -0.815800
     49 H1          27.6660    -0.7530     9.1610 h1         1 OJT       0.069700
     50 H2          28.9920     1.1380     9.9750 hc         1 OJT       0.066200
     51 H3          27.7290     2.2750     9.5470 hc         1 OJT       0.066200
     52 H4          29.7010    -2.4540    11.8730 h1         1 OJT       0.032367
     53 H5          29.3280    -1.6130    13.3870 h1         1 OJT       0.032367
     54 H6          28.0930    -2.6200    12.5980 h1         1 OJT       0.032367
     55 H7          27.1700    -0.9890    13.9540 ha         1 OJT       0.120000
     56 H8          25.4540     0.6020    14.6430 ha         1 OJT       0.113000
     57 H9          24.8600     2.5230    13.1800 ha         1 OJT       0.129000
     58 H10         26.0160     2.7960    11.0160 ha         1 OJT       0.138000
     59 H11         25.5010    -3.4870     6.9600 h5         1 OJT       0.038100
     60 H12         19.3420     0.0100     8.8210 ha         1 OJT       0.151000
     61 H13         17.5430     3.8800     8.4690 ha         1 OJT       0.138000
     62 H14         19.6640     4.7760     7.5740 ha         1 OJT       0.133000
     63 H15         21.6130     3.3090     7.2720 ha         1 OJT       0.151000
     64 H16         22.5620     1.8080    11.9470 hc         1 OJT       0.050367
     65 H17         21.1760     2.2570    10.9660 hc         1 OJT       0.050367
     66 H18         22.1020     0.8140    10.5730 hc         1 OJT       0.050367
     67 H19         26.4810     6.2950     9.2600 h1         1 OJT       0.044700
     68 H20         25.0540     7.0080     8.4840 h1         1 OJT       0.044700
     69 H21         26.2350     7.8370    11.1820 h1         1 OJT       0.041200
     70 H22         26.5060     8.6050     9.6320 h1         1 OJT       0.041200
     71 H24         25.5910    10.6120    11.1290 h1         1 OJT       0.042200
     72 H25         25.4340    10.5270     9.3710 h1         1 OJT       0.042200
     73 H26         23.9420    12.2200    10.3580 h1         1 OJT       0.035700
     74 H27         23.0540    10.9800     9.4660 h1         1 OJT       0.035700
     75 H29         21.2110    11.5110    12.6160 h1         1 OJT       0.026700
     76 H30         22.0140    12.7680    11.6760 h1         1 OJT       0.026700
     77 H31         21.0190    11.5540    10.8560 h1         1 OJT       0.026700
     78 H32         21.8970     9.1820    10.8250 h1         1 OJT       0.035700
     79 H33         22.0640     9.2700    12.5820 h1         1 OJT       0.035700
     80 H34         23.5410     7.5750    11.6000 h1         1 OJT       0.042200
     81 H35         24.4450     8.8120    12.4730 h1         1 OJT       0.042200
     82 H36         25.4930     4.7940     7.8630 ha         1 OJT       0.144000
     83 H37         24.7730     2.6000     7.1070 ha         1 OJT       0.172000
@<TRIPOS>BOND
     1     1     2 1   
     2     1    11 1   
     3     1    46 1   
     4     1    49 1   
     5     2     3 1   
     6     2    50 1   
     7     2    51 1   
     8     3     4 ar  
     9     3    10 ar  
    10     4     5 1   
    11     4     7 ar  
    12     5     6 1   
    13     6    52 1   
    14     6    53 1   
    15     6    54 1   
    16     7     8 ar  
    17     7    55 1   
    18     8     9 ar  
    19     8    56 1   
    20     9    10 ar  
    21     9    57 1   
    22    10    58 1   
    23    11    12 1   
    24    12    13 ar  
    25    12    17 ar  
    26    13    14 ar  
    27    14    15 ar  
    28    14    59 1   
    29    15    16 ar  
    30    16    17 ar  
    31    16    20 1   
    32    17    18 1   
    33    18    19 2   
    34    18    28 1   
    35    19    20 1   
    36    19    21 1   
    37    21    22 ar  
    38    21    27 ar  
    39    22    23 ar  
    40    22    60 1   
    41    23    24 1   
    42    23    25 ar  
    43    25    26 ar  
    44    25    61 1   
    45    26    27 ar  
    46    26    62 1   
    47    27    63 1   
    48    28    29 ar  
    49    28    45 ar  
    50    29    30 1   
    51    29    31 ar  
    52    30    64 1   
    53    30    65 1   
    54    30    66 1   
    55    31    32 1   
    56    31    33 ar  
    57    33    34 1   
    58    33    44 ar  
    59    34    35 1   
    60    35    36 1   
    61    35    67 1   
    62    35    68 1   
    63    36    37 1   
    64    36    69 1   
    65    36    70 1   
    66    37    38 1   
    67    37    43 1   
    68    38    39 1   
    69    38    71 1   
    70    38    72 1   
    71    39    40 1   
    72    39    73 1   
    73    39    74 1   
    74    40    41 1   
    75    40    42 1   
    76    41    75 1   
    77    41    76 1   
    78    41    77 1   
    79    42    43 1   
    80    42    78 1   
    81    42    79 1   
    82    43    80 1   
    83    43    81 1   
    84    44    45 ar  
    85    44    82 1   
    86    45    83 1   
    87    46    47 1   
    88    46    48 1   
@<TRIPOS>SUBSTRUCTURE
     1 OJT         1 TEMP              0 ****  ****    0 ROOT
