@<TRIPOS>MOLECULE
OJT
   83    88     1     0     0
SMALL
No Charge or Current Charge


@<TRIPOS>ATOM
      1 C1          27.3780     0.3330     8.7970 c3         1 OJT       0.025300
      2 C2          27.9050     1.3880     9.8000 c3         1 OJT      -0.013100
      3 C3          27.3850     1.1770    11.2250 ca         1 OJT      -0.087300
      4 C4          27.8220     0.0860    12.0140 ca         1 OJT       0.135100
      5 O1          28.7580    -0.7840    11.4850 os         1 OJT      -0.325100
      6 C5          29.2430    -1.9280    12.2060 c3         1 OJT       0.152900
      7 C6          27.3020    -0.0850    13.3190 ca         1 OJT      -0.209000
      8 C7          26.3610     0.8230    13.8320 ca         1 OJT      -0.094000
      9 C8          25.9380     1.9080    13.0520 ca         1 OJT      -0.151000
     10 C9          26.4490     2.0850    11.7580 ca         1 OJT      -0.071000
     11 O2          25.9220     0.3840     8.8420 os         1 OJT      -0.423300
     12 C10         25.1470    -0.6060     8.2760 ca         1 OJT       0.461300
     13 N1          25.6960    -1.8000     7.9420 nb         1 OJT      -0.265000
     14 C11         24.8660    -2.7430     7.4470 ca         1 OJT       0.182900
     15 N2          23.5340    -2.6270     7.2640 nb         1 OJT      -0.221000
     16 C12         23.0100    -1.4380     7.6050 ca         1 OJT       0.171300
     17 C13         23.7630    -0.3980     8.1040 ca         1 OJT      -0.211800
     18 C14         22.9670     0.7800     8.3910 cc         1 OJT       0.080600
     19 C15         21.6060     0.5800     8.1250 cd         1 OJT      -0.066600
     20 S1          21.2850    -1.0710     7.4940 ss         1 OJT      -0.145900
     21 C16         20.4880     1.5640     8.1310 ca         1 OJT       0.009200
     22 C17         19.1570     1.0950     8.2380 ca         1 OJT      -0.106000
     23 C18         18.0740     1.9880     8.2580 ca         1 OJT       0.118000
     24 Cl1         16.4340     1.3700     8.4120 cl         1 OJT      -0.224000
     25 C19         18.2910     3.3680     8.1600 ca         1 OJT      -0.114000
     26 C20         19.6000     3.8540     8.0330 ca         1 OJT      -0.104000
     27 C21         20.6860     2.9620     8.0150 ca         1 OJT      -0.085000
     28 C22         23.4680     2.0480     8.9240 ca         1 OJT      -0.065800
     29 C23         23.0900     2.5260    10.2060 ca         1 OJT      -0.002300
     30 C24         22.2080     1.6850    11.1340 c3         1 OJT      -0.049800
     31 C25         23.5320     3.8070    10.6200 ca         1 OJT       0.059000
     32 Cl2         23.0270     4.4680    12.1860 cl         1 OJT      -0.219000
     33 C26         24.3720     4.5810     9.7910 ca         1 OJT       0.150100
     34 O3          24.7860     5.8190    10.2440 os         1 OJT      -0.339100
     35 C27         25.5770     6.7170     9.4400 c3         1 OJT       0.166600
     36 C28         25.8170     8.0310    10.2320 c3         1 OJT       0.172800
     37 N3          24.6970     9.0200    10.2420 n3         1 OJT      -0.721600
     38 C29         25.0920    10.3070    10.8960 c6         1 OJT       0.166300
     39 C30         23.9430    11.3660    10.8830 c6         1 OJT       0.162800
     40 N4          22.6900    10.8490    11.5120 n3         1 OJT      -0.718600
     41 C31         21.6040    11.8510    11.5310 c3         1 OJT       0.155100
     42 C32         22.2850     9.5680    10.8590 c6         1 OJT       0.162800
     43 C33         23.4310     8.5050    10.8610 c6         1 OJT       0.166300
     44 C34         24.7760     4.0750     8.5390 ca         1 OJT      -0.202000
     45 C35         24.3210     2.8190     8.1120 ca         1 OJT      -0.020000
     46 C36         27.9670     0.5630     7.3640 c          1 OJT       0.720000
     47 O4          29.1630     0.3570     7.2000 o          1 OJT      -0.710500
     48 O5          27.2220     0.8980     6.4510 o          1 OJT      -0.710500
     49 H1          27.7330    -0.6510     9.1260 h1         1 OJT       0.069700
     50 H2          29.0010     1.3590     9.8040 hc         1 OJT       0.066200
     51 H3          27.6340     2.3860     9.4330 hc         1 OJT       0.066200
     52 H4          29.9710    -2.4790    11.5980 h1         1 OJT       0.032367
     53 H5          29.7400    -1.6210    13.1360 h1         1 OJT       0.032367
     54 H6          28.4200    -2.6110    12.4530 h1         1 OJT       0.032367
     55 H7          27.6160    -0.9120    13.9480 ha         1 OJT       0.102000
     56 H8          25.9640     0.6860    14.8360 ha         1 OJT       0.095000
     57 H9          25.2130     2.6140    13.4510 ha         1 OJT       0.111000
     58 H10         26.1180     2.9320    11.1640 ha         1 OJT       0.120000
     59 H11         25.3140    -3.6980     7.1780 h5         1 OJT       0.038100
     60 H12         18.9490     0.0350     8.3350 ha         1 OJT       0.133000
     61 H13         17.4500     4.0560     8.1740 ha         1 OJT       0.120000
     62 H14         19.7750     4.9240     7.9400 ha         1 OJT       0.115000
     63 H15         21.6740     3.3810     7.8690 ha         1 OJT       0.133000
     64 H16         22.5630     1.7270    12.1710 hc         1 OJT       0.050367
     65 H17         21.1720     2.0420    11.1170 hc         1 OJT       0.050367
     66 H18         22.2010     0.6240    10.8640 hc         1 OJT       0.050367
     67 H19         26.5500     6.2610     9.2160 h1         1 OJT       0.044700
     68 H20         25.0760     6.9490     8.4910 h1         1 OJT       0.044700
     69 H21         26.0980     7.7680    11.2610 h1         1 OJT       0.041200
     70 H22         26.6980     8.5100     9.7840 h1         1 OJT       0.041200
     71 H24         25.3840    10.1240    11.9410 h1         1 OJT       0.042200
     72 H25         25.9680    10.7380    10.3900 h1         1 OJT       0.042200
     73 H26         24.2900    12.2660    11.4110 h1         1 OJT       0.035700
     74 H27         23.7500    11.6590     9.8400 h1         1 OJT       0.035700
     75 H29         20.7190    11.4520    12.0430 h1         1 OJT       0.026700
     76 H30         21.9230    12.7580    12.0610 h1         1 OJT       0.026700
     77 H31         21.3130    12.1330    10.5100 h1         1 OJT       0.026700
     78 H32         21.9870     9.7550     9.8160 h1         1 OJT       0.035700
     79 H33         21.4100     9.1410    11.3700 h1         1 OJT       0.035700
     80 H34         23.0630     7.6240    10.3170 h1         1 OJT       0.042200
     81 H35         23.6170     8.1900    11.8980 h1         1 OJT       0.042200
     82 H36         25.4300     4.6400     7.8820 ha         1 OJT       0.126000
     83 H37         24.6220     2.4430     7.1360 ha         1 OJT       0.154000
@<TRIPOS>BOND
     1     1     2 1   
     2     1    11 1   
     3     1    46 1   
     4     1    49 1   
     5     2     3 1   
     6     2    50 1   
     7     2    51 1   
     8     3     4 ar  
     9     3    10 ar  
    10     4     5 1   
    11     4     7 ar  
    12     5     6 1   
    13     6    52 1   
    14     6    53 1   
    15     6    54 1   
    16     7     8 ar  
    17     7    55 1   
    18     8     9 ar  
    19     8    56 1   
    20     9    10 ar  
    21     9    57 1   
    22    10    58 1   
    23    11    12 1   
    24    12    13 ar  
    25    12    17 ar  
    26    13    14 ar  
    27    14    15 ar  
    28    14    59 1   
    29    15    16 ar  
    30    16    17 ar  
    31    16    20 1   
    32    17    18 1   
    33    18    19 2   
    34    18    28 1   
    35    19    20 1   
    36    19    21 1   
    37    21    22 ar  
    38    21    27 ar  
    39    22    23 ar  
    40    22    60 1   
    41    23    24 1   
    42    23    25 ar  
    43    25    26 ar  
    44    25    61 1   
    45    26    27 ar  
    46    26    62 1   
    47    27    63 1   
    48    28    29 ar  
    49    28    45 ar  
    50    29    30 1   
    51    29    31 ar  
    52    30    64 1   
    53    30    65 1   
    54    30    66 1   
    55    31    32 1   
    56    31    33 ar  
    57    33    34 1   
    58    33    44 ar  
    59    34    35 1   
    60    35    36 1   
    61    35    67 1   
    62    35    68 1   
    63    36    37 1   
    64    36    69 1   
    65    36    70 1   
    66    37    38 1   
    67    37    43 1   
    68    38    39 1   
    69    38    71 1   
    70    38    72 1   
    71    39    40 1   
    72    39    73 1   
    73    39    74 1   
    74    40    41 1   
    75    40    42 1   
    76    41    75 1   
    77    41    76 1   
    78    41    77 1   
    79    42    43 1   
    80    42    78 1   
    81    42    79 1   
    82    43    80 1   
    83    43    81 1   
    84    44    45 ar  
    85    44    82 1   
    86    45    83 1   
    87    46    47 1   
    88    46    48 1   
@<TRIPOS>SUBSTRUCTURE
     1 OJT         1 TEMP              0 ****  ****    0 ROOT
