@<TRIPOS>MOLECULE
OJW
   90    96     1     0     0
SMALL
No Charge or Current Charge


@<TRIPOS>ATOM
      1 C1         -18.6870   -13.4420     5.2840 c3         1 OJW       0.053900
      2 N1         -19.7070   -12.8270     6.1470 na         1 OJW       0.172800
      3 N2         -20.6210   -13.6370     6.7970 nc         1 OJW      -0.512800
      4 C2         -21.3600   -12.7730     7.4650 cd         1 OJW       0.220900
      5 C3         -20.9510   -11.4430     7.2600 cd         1 OJW      -0.226000
      6 C4         -19.8830   -11.4660     6.4090 cc         1 OJW      -0.159300
      7 C5         -19.0590   -10.3350     5.8510 c3         1 OJW       0.234900
      8 O1         -17.7450   -10.4230     6.4250 os         1 OJW      -0.332100
      9 C6         -16.7290    -9.5480     6.0920 ca         1 OJW       0.136100
     10 C7         -15.4540    -9.7330     6.6780 ca         1 OJW      -0.088300
     11 C8         -15.1810   -10.8890     7.6440 c3         1 OJW      -0.018100
     12 C9         -15.2190   -12.2820     6.9670 c3         1 OJW       0.028300
     13 O2         -14.2330   -12.2720     5.8950 os         1 OJW      -0.429300
     14 C10        -14.2090   -13.2630     4.9360 ca         1 OJW       0.461300
     15 N3         -15.3170   -14.0030     4.6900 nb         1 OJW      -0.271000
     16 C11        -15.2380   -14.9280     3.7090 ca         1 OJW       0.183900
     17 N4         -14.1640   -15.1890     2.9340 nb         1 OJW      -0.215000
     18 C12        -13.0770   -14.4420     3.1900 ca         1 OJW       0.166300
     19 C13        -13.0440   -13.4710     4.1710 ca         1 OJW      -0.208800
     20 C14        -11.7560   -12.8120     4.2680 cc         1 OJW       0.089600
     21 C15        -10.8420   -13.3470     3.3550 cd         1 OJW      -0.163200
     22 S1         -11.5580   -14.6000     2.2950 ss         1 OJW      -0.106900
     23 C16         -9.4420   -12.9960     3.2130 cd         1 OJW       0.236800
     24 C17         -8.6930   -12.1370     3.9900 cc         1 OJW      -0.148000
     25 C18         -7.3910   -12.1560     3.4480 cc         1 OJW      -0.217000
     26 C19         -7.4500   -13.0210     2.3980 cd         1 OJW       0.342200
     27 F1          -6.4580   -13.3850     1.5690 f          1 OJW      -0.205200
     28 O3          -8.6880   -13.5760     2.2150 os         1 OJW      -0.264000
     29 C20        -11.4300   -11.7260     5.1870 ca         1 OJW      -0.071800
     30 C21        -11.3550   -10.3780     4.7530 ca         1 OJW      -0.007300
     31 C22        -11.6490    -9.9980     3.2980 c3         1 OJW      -0.050800
     32 C23        -10.9780    -9.3770     5.6800 ca         1 OJW       0.053000
     33 Cl1        -10.8040    -7.6920     5.1580 cl         1 OJW      -0.215000
     34 C24        -10.7260    -9.7060     7.0300 ca         1 OJW       0.153100
     35 O4         -10.3770    -8.6920     7.9010 os         1 OJW      -0.343100
     36 C25        -10.0240    -8.9350     9.2780 c3         1 OJW       0.163600
     37 C26         -9.6450    -7.5880     9.9520 c3         1 OJW       0.169800
     38 N5          -8.2680    -7.0730     9.6860 n3         1 OJW      -0.721600
     39 C27         -7.9560    -5.8610    10.5060 c6         1 OJW       0.164300
     40 C28         -6.5060    -5.3290    10.2670 c6         1 OJW       0.162800
     41 N6          -6.2400    -5.0400     8.8260 n3         1 OJW      -0.717600
     42 C29         -4.8810    -4.5110     8.5900 c3         1 OJW       0.155100
     43 C30         -6.5410    -6.2490     8.0010 c6         1 OJW       0.162800
     44 C31         -7.9880    -6.7920     8.2390 c6         1 OJW       0.164300
     45 C32        -10.8440   -11.0440     7.4570 ca         1 OJW      -0.201000
     46 C33        -11.1910   -12.0440     6.5360 ca         1 OJW      -0.014000
     47 C34        -14.9980   -13.4330     8.0080 c          1 OJW       0.715000
     48 O5         -15.8700   -13.6170     8.8470 o          1 OJW      -0.706500
     49 O6         -13.9940   -14.1320     7.9320 o          1 OJW      -0.706500
     50 C35        -14.4160    -8.8310     6.3720 ca         1 OJW      -0.070000
     51 C36        -14.6310    -7.7700     5.4790 ca         1 OJW      -0.148000
     52 C37        -15.8900    -7.5930     4.8870 ca         1 OJW      -0.092000
     53 C38        -16.9380    -8.4760     5.1930 ca         1 OJW      -0.209000
     54 H1         -19.1780   -14.0390     4.5070 h1         1 OJW       0.073700
     55 H2         -18.0710   -12.6700     4.8090 h1         1 OJW       0.073700
     56 H3         -18.0450   -14.0930     5.8890 h1         1 OJW       0.073700
     57 H4         -22.1760   -13.1330     8.0800 h4         1 OJW       0.026100
     58 H5         -21.4040   -10.5610     7.7000 ha         1 OJW       0.133000
     59 H6         -19.0150   -10.4210     4.7580 h1         1 OJW       0.039700
     60 H7         -19.5310    -9.3780     6.1080 h1         1 OJW       0.039700
     61 H8         -15.9230   -10.8690     8.4520 hc         1 OJW       0.070700
     62 H9         -14.2070   -10.7660     8.1330 hc         1 OJW       0.070700
     63 H10        -16.2240   -12.4260     6.5540 h1         1 OJW       0.056700
     64 H11        -16.1320   -15.5190     3.5200 h5         1 OJW       0.039100
     65 H12         -8.9800   -11.5630     4.8590 ha         1 OJW       0.158000
     66 H13         -6.5270   -11.6040     3.8040 ha         1 OJW       0.150000
     67 H14        -12.3100    -9.1250     3.2430 hc         1 OJW       0.050367
     68 H15        -10.7230    -9.7550     2.7650 hc         1 OJW       0.050367
     69 H16        -12.1520   -10.7960     2.7400 hc         1 OJW       0.050367
     70 H17        -10.8810    -9.3640     9.8130 h1         1 OJW       0.048700
     71 H18         -9.1810    -9.6330     9.3570 h1         1 OJW       0.048700
     72 H19        -10.3920    -6.8360     9.6640 h1         1 OJW       0.043200
     73 H20         -9.7570    -7.7380    11.0340 h1         1 OJW       0.043200
     74 H22         -8.6640    -5.0530    10.2700 h1         1 OJW       0.043700
     75 H23         -8.0720    -6.0850    11.5760 h1         1 OJW       0.043700
     76 H24         -5.7930    -6.0800    10.6400 h1         1 OJW       0.034700
     77 H25         -6.3610    -4.4210    10.8700 h1         1 OJW       0.034700
     78 H27         -4.7150    -3.5960     9.1750 h1         1 OJW       0.026700
     79 H28         -4.1180    -5.2470     8.8760 h1         1 OJW       0.026700
     80 H29         -4.7410    -4.2640     7.5290 h1         1 OJW       0.026700
     81 H30         -5.8260    -7.0510     8.2350 h1         1 OJW       0.034700
     82 H31         -6.4250    -6.0180     6.9320 h1         1 OJW       0.034700
     83 H32         -8.7070    -6.0560     7.8490 h1         1 OJW       0.043700
     84 H33         -8.1000    -7.7040     7.6370 h1         1 OJW       0.043700
     85 H34        -10.6680   -11.3290     8.4890 ha         1 OJW       0.128000
     86 H35        -11.2740   -13.0770     6.8690 ha         1 OJW       0.156000
     87 H37        -13.4390    -8.9530     6.8300 ha         1 OJW       0.124000
     88 H38        -13.8210    -7.0820     5.2470 ha         1 OJW       0.112000
     89 H39        -16.0550    -6.7700     4.1960 ha         1 OJW       0.097000
     90 H40        -17.9040    -8.3080     4.7260 ha         1 OJW       0.103000
@<TRIPOS>BOND
     1     1     2 1   
     2     1    54 1   
     3     1    55 1   
     4     1    56 1   
     5     2     3 1   
     6     2     6 1   
     7     3     4 2   
     8     4     5 1   
     9     4    57 1   
    10     5     6 2   
    11     5    58 1   
    12     6     7 1   
    13     7     8 1   
    14     7    59 1   
    15     7    60 1   
    16     8     9 1   
    17     9    10 ar  
    18     9    53 ar  
    19    10    11 1   
    20    10    50 ar  
    21    11    12 1   
    22    11    61 1   
    23    11    62 1   
    24    12    13 1   
    25    12    47 1   
    26    12    63 1   
    27    13    14 1   
    28    14    15 ar  
    29    14    19 ar  
    30    15    16 ar  
    31    16    17 ar  
    32    16    64 1   
    33    17    18 ar  
    34    18    19 ar  
    35    18    22 1   
    36    19    20 1   
    37    20    21 2   
    38    20    29 1   
    39    21    22 1   
    40    21    23 1   
    41    23    24 2   
    42    23    28 1   
    43    24    25 1   
    44    24    65 1   
    45    25    26 2   
    46    25    66 1   
    47    26    27 1   
    48    26    28 1   
    49    29    30 ar  
    50    29    46 ar  
    51    30    31 1   
    52    30    32 ar  
    53    31    67 1   
    54    31    68 1   
    55    31    69 1   
    56    32    33 1   
    57    32    34 ar  
    58    34    35 1   
    59    34    45 ar  
    60    35    36 1   
    61    36    37 1   
    62    36    70 1   
    63    36    71 1   
    64    37    38 1   
    65    37    72 1   
    66    37    73 1   
    67    38    39 1   
    68    38    44 1   
    69    39    40 1   
    70    39    74 1   
    71    39    75 1   
    72    40    41 1   
    73    40    76 1   
    74    40    77 1   
    75    41    42 1   
    76    41    43 1   
    77    42    78 1   
    78    42    79 1   
    79    42    80 1   
    80    43    44 1   
    81    43    81 1   
    82    43    82 1   
    83    44    83 1   
    84    44    84 1   
    85    45    46 ar  
    86    45    85 1   
    87    46    86 1   
    88    47    48 1   
    89    47    49 1   
    90    50    51 ar  
    91    50    87 1   
    92    51    52 ar  
    93    51    88 1   
    94    52    53 ar  
    95    52    89 1   
    96    53    90 1   
@<TRIPOS>SUBSTRUCTURE
     1 OJW         1 TEMP              0 ****  ****    0 ROOT
