@<TRIPOS>MOLECULE
OJW
   90    96     1     0     0
SMALL
abcg2


@<TRIPOS>ATOM
      1 C1         -19.0330   -13.0790     6.2910 c3         1 OJW       0.053900
      2 N1         -19.8500   -12.2090     7.1060 na         1 OJW       0.172800
      3 N2         -20.7140   -12.7360     7.9650 nc         1 OJW      -0.512800
      4 C2         -21.2500   -11.7120     8.6050 cd         1 OJW       0.220900
      5 C3         -20.7120   -10.4980     8.1580 cd         1 OJW      -0.226000
      6 C4         -19.8030   -10.8610     7.1880 cc         1 OJW      -0.159300
      7 C5         -18.9240   -10.0050     6.3520 c3         1 OJW       0.234900
      8 O1         -17.5780   -10.2980     6.6830 os         1 OJW      -0.332100
      9 C6         -16.5870    -9.5950     6.0870 ca         1 OJW       0.136100
     10 C7         -15.2790   -10.0010     6.3940 ca         1 OJW      -0.088300
     11 C8         -15.0180   -11.1980     7.2620 c3         1 OJW      -0.018100
     12 C9         -15.1040   -12.5120     6.4890 c3         1 OJW       0.028300
     13 O2         -14.0430   -12.4780     5.5310 os         1 OJW      -0.429300
     14 C10        -13.9590   -13.4430     4.6490 ca         1 OJW       0.461300
     15 N3         -14.9930   -14.2220     4.4010 nb         1 OJW      -0.271000
     16 C11        -14.8720   -15.1620     3.4670 ca         1 OJW       0.183900
     17 N4         -13.8080   -15.4220     2.7370 nb         1 OJW      -0.215000
     18 C12        -12.7680   -14.6380     3.0020 ca         1 OJW       0.166300
     19 C13        -12.7470   -13.6090     3.9430 ca         1 OJW      -0.208800
     20 C14        -11.4840   -12.9370     4.0160 cc         1 OJW       0.089600
     21 C15        -10.5850   -13.4840     3.1440 cd         1 OJW      -0.163200
     22 S1         -11.2460   -14.7960     2.2030 ss         1 OJW      -0.106900
     23 C16         -9.2060   -13.1340     2.9430 cd         1 OJW       0.236800
     24 C17         -8.2960   -12.3520     3.5880 cc         1 OJW      -0.148000
     25 C18         -7.0660   -12.4620     2.8710 cc         1 OJW      -0.217000
     26 C19         -7.3450   -13.3040     1.8570 cd         1 OJW       0.342200
     27 F1          -6.6160   -13.7740     0.8770 f          1 OJW      -0.205200
     28 O3          -8.6010   -13.7250     1.8670 os         1 OJW      -0.264000
     29 C20        -11.1670   -11.8150     4.9210 ca         1 OJW      -0.071800
     30 C21        -10.9820   -10.5120     4.4360 ca         1 OJW      -0.007300
     31 C22        -11.1340   -10.1710     2.9860 c3         1 OJW      -0.050800
     32 C23        -10.6570    -9.5210     5.3550 ca         1 OJW       0.053000
     33 CL1        -10.4160    -7.8920     4.8130 cl         1 OJW      -0.215000
     34 C24        -10.5520    -9.7620     6.7290 ca         1 OJW       0.153100
     35 O4         -10.2920    -8.7070     7.5060 os         1 OJW      -0.343100
     36 C25        -10.2750    -8.8720     8.9180 c3         1 OJW       0.163600
     37 C26        -10.1110    -7.5280     9.5950 c3         1 OJW       0.169800
     38 N5          -8.7630    -6.9960     9.5910 n3         1 OJW      -0.721600
     39 C27         -8.6000    -5.9910    10.6270 c6         1 OJW       0.164300
     40 C28         -7.1670    -5.5020    10.6860 c6         1 OJW       0.162800
     41 N6          -6.7610    -4.9520     9.4090 n3         1 OJW      -0.717600
     42 C29         -5.4120    -4.4390     9.4510 c3         1 OJW       0.155100
     43 C30         -6.9250    -5.9460     8.3700 c6         1 OJW       0.162800
     44 C31         -8.3560    -6.4430     8.3090 c6         1 OJW       0.164300
     45 C32        -10.7410   -11.0630     7.1850 ca         1 OJW      -0.201000
     46 C33        -11.0430   -12.0670     6.2810 ca         1 OJW      -0.014000
     47 C34        -14.9610   -13.7300     7.4370 c          1 OJW       0.715000
     48 O5         -15.9720   -13.9570     8.1290 o          1 OJW      -0.706500
     49 O6         -13.8750   -14.3290     7.4420 o          1 OJW      -0.706500
     50 C35        -14.2260    -9.2910     5.8360 ca         1 OJW      -0.070000
     51 C36        -14.4340    -8.2130     4.9840 ca         1 OJW      -0.148000
     52 C37        -15.7310    -7.8380     4.6780 ca         1 OJW      -0.092000
     53 C38        -16.8100    -8.5240     5.2280 ca         1 OJW      -0.209000
     54 H1         -19.6110   -13.9630     6.0380 h1         1 OJW       0.073700
     55 H2         -18.7530   -12.5740     5.3700 h1         1 OJW       0.073700
     56 H3         -18.1300   -13.3770     6.8220 h1         1 OJW       0.073700
     57 H4         -22.0050   -11.8760     9.3600 h4         1 OJW       0.026100
     58 H5         -20.9470    -9.4990     8.4840 ha         1 OJW       0.133000
     59 H6         -19.0980   -10.1750     5.2830 h1         1 OJW       0.039700
     60 H7         -19.1680    -8.9590     6.5630 h1         1 OJW       0.039700
     61 H8         -15.7310   -11.2520     8.0850 hc         1 OJW       0.070700
     62 H9         -14.0240   -11.1140     7.7120 hc         1 OJW       0.070700
     63 H10        -16.0620   -12.5680     5.9680 h1         1 OJW       0.056700
     64 H11        -15.7470   -15.7790     3.2920 h5         1 OJW       0.039100
     65 H12         -8.4650   -11.7700     4.4780 ha         1 OJW       0.158000
     66 H13         -6.1260   -11.9840     3.0870 ha         1 OJW       0.150000
     67 H14        -11.8250    -9.3380     2.8510 hc         1 OJW       0.050367
     68 H15        -10.1800    -9.8730     2.5480 hc         1 OJW       0.050367
     69 H16        -11.5130   -11.0130     2.4130 hc         1 OJW       0.050367
     70 H17        -11.2220    -9.3140     9.2460 h1         1 OJW       0.048700
     71 H18         -9.4640    -9.5430     9.2190 h1         1 OJW       0.048700
     72 H19        -10.8480    -6.8170     9.1830 h1         1 OJW       0.043200
     73 H20        -10.3970    -7.6910    10.6370 h1         1 OJW       0.043200
     74 H22         -9.2710    -5.1290    10.4690 h1         1 OJW       0.043700
     75 H23         -8.8630    -6.4290    11.5930 h1         1 OJW       0.043700
     76 H24         -6.5140    -6.3370    10.9950 h1         1 OJW       0.034700
     77 H25         -7.0840    -4.7290    11.4540 h1         1 OJW       0.034700
     78 H27         -5.3290    -3.6620    10.2130 h1         1 OJW       0.026700
     79 H28         -4.6610    -5.2120     9.6780 h1         1 OJW       0.026700
     80 H29         -5.1510    -3.9930     8.4900 h1         1 OJW       0.026700
     81 H30         -6.2500    -6.8070     8.5220 h1         1 OJW       0.034700
     82 H31         -6.6640    -5.5030     7.4060 h1         1 OJW       0.034700
     83 H32         -9.0170    -5.6130     8.0040 h1         1 OJW       0.043700
     84 H33         -8.4200    -7.2050     7.5350 h1         1 OJW       0.043700
     85 H34        -10.6640   -11.3050     8.2360 ha         1 OJW       0.128000
     86 H35        -11.1950   -13.0720     6.6500 ha         1 OJW       0.156000
     87 H37        -13.2160    -9.5950     6.0770 ha         1 OJW       0.124000
     88 H38        -13.5910    -7.6780     4.5670 ha         1 OJW       0.112000
     89 H39        -15.9200    -7.0060     4.0130 ha         1 OJW       0.097000
     90 H40        -17.8120    -8.2040     4.9760 ha         1 OJW       0.103000
@<TRIPOS>BOND
     1     1     2 1   
     2     1    54 1   
     3     1    55 1   
     4     1    56 1   
     5     2     3 1   
     6     2     6 1   
     7     3     4 2   
     8     4     5 1   
     9     4    57 1   
    10     5     6 2   
    11     5    58 1   
    12     6     7 1   
    13     7     8 1   
    14     7    59 1   
    15     7    60 1   
    16     8     9 1   
    17     9    10 ar  
    18     9    53 ar  
    19    10    11 1   
    20    10    50 ar  
    21    11    12 1   
    22    11    61 1   
    23    11    62 1   
    24    12    13 1   
    25    12    47 1   
    26    12    63 1   
    27    13    14 1   
    28    14    15 ar  
    29    14    19 ar  
    30    15    16 ar  
    31    16    17 ar  
    32    16    64 1   
    33    17    18 ar  
    34    18    19 ar  
    35    18    22 1   
    36    19    20 1   
    37    20    21 2   
    38    20    29 1   
    39    21    22 1   
    40    21    23 1   
    41    23    24 2   
    42    23    28 1   
    43    24    25 1   
    44    24    65 1   
    45    25    26 2   
    46    25    66 1   
    47    26    27 1   
    48    26    28 1   
    49    29    30 ar  
    50    29    46 ar  
    51    30    31 1   
    52    30    32 ar  
    53    31    67 1   
    54    31    68 1   
    55    31    69 1   
    56    32    33 1   
    57    32    34 ar  
    58    34    35 1   
    59    34    45 ar  
    60    35    36 1   
    61    36    37 1   
    62    36    70 1   
    63    36    71 1   
    64    37    38 1   
    65    37    72 1   
    66    37    73 1   
    67    38    39 1   
    68    38    44 1   
    69    39    40 1   
    70    39    74 1   
    71    39    75 1   
    72    40    41 1   
    73    40    76 1   
    74    40    77 1   
    75    41    42 1   
    76    41    43 1   
    77    42    78 1   
    78    42    79 1   
    79    42    80 1   
    80    43    44 1   
    81    43    81 1   
    82    43    82 1   
    83    44    83 1   
    84    44    84 1   
    85    45    46 ar  
    86    45    85 1   
    87    46    86 1   
    88    47    48 1   
    89    47    49 1   
    90    50    51 ar  
    91    50    87 1   
    92    51    52 ar  
    93    51    88 1   
    94    52    53 ar  
    95    52    89 1   
    96    53    90 1   
@<TRIPOS>SUBSTRUCTURE
     1 OJW         1 TEMP              0 ****  ****    0 ROOT
