@<TRIPOS>MOLECULE
OJY
   29    29     1     0     0
SMALL
No Charge or Current Charge


@<TRIPOS>ATOM
      1 C11         -0.3600    -1.1920    -0.3730 c3         1 OJY      -0.116700
      2 C14         -3.8070    -0.0720     0.2590 cc         1 OJY      -0.234300
      3 C10          0.6480    -0.1260     0.1130 c3         1 OJY      -0.077400
      4 C12         -1.7640    -0.9460     0.1090 cc         1 OJY       0.430800
      5 C15         -3.6250    -1.0510     1.2030 cd         1 OJY       0.264900
      6 C06          4.6220     0.0760    -0.1130 c          1 OJY       0.725000
      7 O07          5.0250    -0.0020    -1.2680 o          1 OJY      -0.730000
      8 C08          3.1510     0.6160     0.1450 c3         1 OJY       0.020500
      9 C09          2.0920    -0.3900    -0.3820 c3         1 OJY      -0.102400
     10 N13         -2.6120    -0.0150    -0.4320 na         1 OJY      -0.303500
     11 N16         -2.3550    -1.5890     1.1030 nd         1 OJY      -0.689000
     12 O18         -4.8260     1.6070    -1.1500 oh         1 OJY      -0.646000
     13 N19          2.8470     2.0020    -0.3640 n8         1 OJY      -0.982200
     14 H1          -0.3560    -1.2210    -1.4690 hc         1 OJY       0.062200
     15 H2          -0.0290    -2.1820    -0.0360 hc         1 OJY       0.062200
     16 H3           0.3120     0.8600    -0.2290 hc         1 OJY       0.029700
     17 H4           0.6420    -0.1040     1.2110 hc         1 OJY       0.029700
     18 H7          -4.3340    -1.3970     1.9460 h4         1 OJY       0.038100
     19 H17          3.0350     0.6530     1.2370 h1         1 OJY       0.044700
     20 H18          2.3880    -1.3970    -0.0610 hc         1 OJY       0.046200
     21 H19          2.1090    -0.4000    -1.4800 hc         1 OJY       0.046200
     22 H20         -2.3930     0.6020    -1.2050 hn         1 OJY       0.347000
     23 H22         -5.6510     2.1290    -1.2590 ho         1 OJY       0.439000
     24 H23          3.0180     2.0230    -1.3770 hn         1 OJY       0.370000
     25 H8           1.8400     2.1750    -0.2780 hn         1 OJY       0.370000
     26 H5          -5.8900     0.1250    -0.1470 h1         1 OJY       0.017700
     27 H6          -5.2160     1.4000     0.8850 h1         1 OJY       0.017700
     28 C17         -5.0210     0.7800     0.0000 c3         1 OJY       0.248900
     29 OXT          5.3250    -0.1820     0.8570 o          1 OJY      -0.730000
@<TRIPOS>BOND
     1     1     3 1   
     2     1     4 1   
     3     1    14 1   
     4     1    15 1   
     5     2     5 2   
     6     2    10 1   
     7     2    28 1   
     8     3     9 1   
     9     3    16 1   
    10     3    17 1   
    11     4    10 1   
    12     4    11 2   
    13     5    11 1   
    14     5    18 1   
    15     6     7 1   
    16     6     8 1   
    17     6    29 1   
    18     8     9 1   
    19     8    13 1   
    20     8    19 1   
    21     9    20 1   
    22     9    21 1   
    23    10    22 1   
    24    12    23 1   
    25    12    28 1   
    26    13    24 1   
    27    13    25 1   
    28    26    28 1   
    29    27    28 1   
@<TRIPOS>SUBSTRUCTURE
     1 OJY         1 TEMP              0 ****  ****    0 ROOT
