@<TRIPOS>MOLECULE
OJY
   29    29     1     0     0
SMALL
abcg2


@<TRIPOS>ATOM
      1 C11         -0.2900    -1.1110    -0.7090 c3         1 OJY      -0.116700
      2 C14         -3.7010    -0.0260    -0.0700 cc         1 OJY      -0.234300
      3 C10          0.6370    -0.1670     0.0600 c3         1 OJY      -0.077400
      4 C12         -1.7230    -0.9720    -0.3290 cc         1 OJY       0.430800
      5 C15         -3.7030    -1.2990     0.4210 cd         1 OJY       0.264900
      6 C06          4.5130     0.1680     0.0310 c          1 OJY       0.725000
      7 O07          5.1210     0.9630    -0.7120 o          1 OJY      -0.730000
      8 C08          3.0740     0.5400     0.4500 c3         1 OJY       0.020500
      9 C09          2.0950    -0.3470    -0.3380 c3         1 OJY      -0.102400
     10 N13         -2.4330     0.1630    -0.5430 na         1 OJY      -0.303500
     11 N16         -2.4690    -1.8750     0.2560 nd         1 OJY      -0.689000
     12 O18         -5.9170     0.5080     0.4540 oh         1 OJY      -0.646000
     13 N19          2.8480     1.9700     0.3160 n8         1 OJY      -0.982200
     14 H1          -0.1720    -0.9360    -1.7840 hc         1 OJY       0.062200
     15 H2           0.0020    -2.1470    -0.5260 hc         1 OJY       0.062200
     16 H3           0.3240     0.8670    -0.1190 hc         1 OJY       0.029700
     17 H4           0.5220    -0.3440     1.1340 hc         1 OJY       0.029700
     18 H7          -4.5190    -1.8330     0.8830 h4         1 OJY       0.038100
     19 H17          2.9610     0.2850     1.5100 h1         1 OJY       0.044700
     20 H18          2.3770    -1.3940    -0.1890 hc         1 OJY       0.046200
     21 H19          2.2070    -0.1410    -1.4090 hc         1 OJY       0.046200
     22 H20         -2.0860     1.0010    -0.9840 hn         1 OJY       0.347000
     23 H22         -6.6190     1.1550     0.3470 ho         1 OJY       0.439000
     24 H23          3.0470     2.2470    -0.6380 hn         1 OJY       0.370000
     25 H8           1.8750     2.1890     0.4850 hn         1 OJY       0.370000
     26 H5          -4.4060     1.9350     0.3510 h1         1 OJY       0.017700
     27 H6          -4.9280     1.2920    -1.1990 h1         1 OJY       0.017700
     28 C17         -4.7570     1.0210    -0.1480 c3         1 OJY       0.248900
     29 OXT          4.9350    -0.9320     0.4430 o          1 OJY      -0.730000
@<TRIPOS>BOND
     1     1     3 1   
     2     1     4 1   
     3     1    14 1   
     4     1    15 1   
     5     2     5 2   
     6     2    10 1   
     7     2    28 1   
     8     3     9 1   
     9     3    16 1   
    10     3    17 1   
    11     4    10 1   
    12     4    11 2   
    13     5    11 1   
    14     5    18 1   
    15     6     7 1   
    16     6     8 1   
    17     6    29 1   
    18     8     9 1   
    19     8    13 1   
    20     8    19 1   
    21     9    20 1   
    22     9    21 1   
    23    10    22 1   
    24    12    23 1   
    25    12    28 1   
    26    13    24 1   
    27    13    25 1   
    28    26    28 1   
    29    27    28 1   
@<TRIPOS>SUBSTRUCTURE
     1 OJY         1 TEMP              0 ****  ****    0 ROOT
