@<TRIPOS>MOLECULE
OK0
   50    53     1     0     0
SMALL
No Charge or Current Charge


@<TRIPOS>ATOM
      1 C1         -19.8360   -12.7270   -10.7360 ca         1 OK0      -0.086000
      2 C2         -19.4930   -12.7180   -12.0990 ca         1 OK0      -0.101500
      3 C3         -20.0330   -13.6790   -12.9770 ca         1 OK0      -0.050300
      4 C4         -19.6690   -13.6780   -14.4700 c6         1 OK0      -0.021400
      5 C5         -18.1520   -13.9100   -14.7050 c6         1 OK0      -0.069900
      6 C6         -17.8110   -13.8860   -16.2160 c6         1 OK0       0.159300
      7 C7         -19.7180   -12.3860   -16.6780 c6         1 OK0       0.159300
      8 C8         -20.1120   -12.3690   -15.1800 c6         1 OK0      -0.069900
      9 C9         -20.9170   -14.6510   -12.4680 ca         1 OK0      -0.101500
     10 C15        -21.7380   -13.8270    -5.9910 ca         1 OK0      -0.118300
     11 F2         -23.2480   -14.4440    -4.2120 f          1 OK0      -0.103333
     12 C16        -21.9880   -14.0240    -4.4660 c3         1 OK0       0.361300
     13 F          -21.7680   -12.9100    -3.7360 f          1 OK0      -0.103333
     14 F1         -21.1760   -14.9600    -3.9180 f          1 OK0      -0.103333
     15 C14        -22.2220   -12.7140    -6.7820 ca         1 OK0      -0.211500
     16 S          -23.2970   -11.4000    -6.0430 sy         1 OK0       1.135600
     17 O1         -24.1410   -11.9380    -4.9780 o          1 OK0      -0.504000
     18 N5         -22.2080   -10.4430    -5.2740 n8         1 OK0      -1.014100
     19 O          -23.8440   -10.5150    -7.0650 o          1 OK0      -0.504000
     20 C12        -21.8750   -12.6630    -8.1840 ca         1 OK0      -0.055500
     21 C13        -22.3000   -11.5690    -9.0670 cc         1 OK0       0.434000
     22 N4         -21.6640   -10.3680    -9.2070 na         1 OK0      -0.212700
     23 N3         -22.2360    -9.6460   -10.2030 nc         1 OK0      -0.189800
     24 N2         -23.1880   -10.4170   -10.6590 nd         1 OK0      -0.030000
     25 N1         -23.2320   -11.6230    -9.9970 nd         1 OK0      -0.335000
     26 C17        -20.9990   -14.8480    -6.6340 ca         1 OK0      -0.072000
     27 C18        -20.6960   -14.7890    -7.9910 ca         1 OK0      -0.067000
     28 C11        -21.1070   -13.7040    -8.7740 cp         1 OK0       0.020000
     29 C          -20.7330   -13.6900   -10.2190 cp         1 OK0      -0.071000
     30 C10        -21.2590   -14.6580   -11.1050 ca         1 OK0      -0.086000
     31 N          -18.2650   -12.6250   -16.8510 n7         1 OK0      -0.863400
     32 H1         -19.4000   -11.9840   -10.0730 ha         1 OK0       0.112000
     33 H2         -18.8040   -11.9620   -12.4680 ha         1 OK0       0.119500
     34 H3         -20.2040   -14.5070   -14.9550 hc         1 OK0       0.049700
     35 H4         -17.8490   -14.8740   -14.2740 hc         1 OK0       0.050700
     36 H5         -17.5630   -13.1390   -14.1900 hc         1 OK0       0.050700
     37 H6         -18.2940   -14.7400   -16.7140 h1         1 OK0       0.030450
     38 H7         -16.7240   -13.9940   -16.3500 h1         1 OK0       0.030450
     39 H8         -19.9900   -11.4260   -17.1420 h1         1 OK0       0.030450
     40 H9         -20.2820   -13.1770   -17.1960 h1         1 OK0       0.030450
     41 H10        -19.6520   -11.4970   -14.6960 hc         1 OK0       0.050700
     42 H11        -21.1990   -12.2410   -15.0860 hc         1 OK0       0.050700
     43 H12        -21.3430   -15.4050   -13.1260 ha         1 OK0       0.119500
     44 H13        -21.3250   -10.6970    -5.7060 hn         1 OK0       0.486000
     45 H14        -22.4290    -9.5320    -5.6690 hn         1 OK0       0.486000
     46 H15        -20.8670   -10.0320    -8.6830 hn         1 OK0       0.374000
     47 H16        -20.6440   -15.7180    -6.0860 ha         1 OK0       0.142000
     48 H17        -20.1200   -15.5910    -8.4460 ha         1 OK0       0.137000
     49 H18        -21.9460   -15.4130   -10.7300 ha         1 OK0       0.112000
     50 H19        -18.0520   -12.6650   -17.8560 hn         1 OK0       0.412000
@<TRIPOS>BOND
     1     1     2 ar  
     2     1    29 ar  
     3     1    32 1   
     4     2     3 ar  
     5     2    33 1   
     6     3     4 1   
     7     3     9 ar  
     8     4     5 1   
     9     4     8 1   
    10     4    34 1   
    11     5     6 1   
    12     5    35 1   
    13     5    36 1   
    14     6    31 1   
    15     6    37 1   
    16     6    38 1   
    17     7     8 1   
    18     7    31 1   
    19     7    39 1   
    20     7    40 1   
    21     8    41 1   
    22     8    42 1   
    23     9    30 ar  
    24     9    43 1   
    25    10    12 1   
    26    10    15 ar  
    27    10    26 ar  
    28    11    12 1   
    29    12    13 1   
    30    12    14 1   
    31    15    16 1   
    32    15    20 ar  
    33    16    17 2   
    34    16    18 1   
    35    16    19 2   
    36    18    44 1   
    37    18    45 1   
    38    20    21 1   
    39    20    28 ar  
    40    21    22 1   
    41    21    25 2   
    42    22    23 1   
    43    22    46 1   
    44    23    24 2   
    45    24    25 1   
    46    26    27 ar  
    47    26    47 1   
    48    27    28 ar  
    49    27    48 1   
    50    28    29 1   
    51    29    30 ar  
    52    30    49 1   
    53    31    50 1   
@<TRIPOS>SUBSTRUCTURE
     1 OK0         1 TEMP              0 ****  ****    0 ROOT
