@<TRIPOS>MOLECULE
OK0
   50    53     1     0     0
SMALL
abcg2


@<TRIPOS>ATOM
      1 C1         -19.9920   -12.6590   -10.7900 ca         1 OK0      -0.086000
      2 C2         -19.6380   -12.6600   -12.1280 ca         1 OK0      -0.101500
      3 C3         -20.1260   -13.6290   -13.0050 ca         1 OK0      -0.050300
      4 C4         -19.7130   -13.6540   -14.4520 c6         1 OK0      -0.021400
      5 C5         -18.2110   -13.9250   -14.6060 c6         1 OK0      -0.069900
      6 C6         -17.8080   -13.9200   -16.0730 c6         1 OK0       0.159300
      7 C7         -19.6050   -12.4360   -16.6450 c6         1 OK0       0.159300
      8 C8         -20.0860   -12.3710   -15.2020 c6         1 OK0      -0.069900
      9 C9         -20.9840   -14.5970   -12.4910 ca         1 OK0      -0.101500
     10 C15        -21.6830   -13.8200    -6.0810 ca         1 OK0      -0.118300
     11 F2         -23.0160   -14.4740    -4.2310 f          1 OK0      -0.103333
     12 C16        -21.8200   -14.0050    -4.5830 c3         1 OK0       0.361300
     13 F          -21.5860   -12.8820    -3.8970 f          1 OK0      -0.103333
     14 F1         -20.9250   -14.8920    -4.1340 f          1 OK0      -0.103333
     15 C14        -22.1540   -12.7260    -6.8250 ca         1 OK0      -0.211500
     16 S          -23.1830   -11.4290    -6.0770 sy         1 OK0       1.135600
     17 O1         -23.9240   -12.0380    -4.9960 o          1 OK0      -0.504000
     18 N5         -22.2040   -10.2930    -5.4350 n8         1 OK0      -1.014100
     19 O          -23.9000   -10.7850    -7.1590 o          1 OK0      -0.504000
     20 C12        -21.8870   -12.6550    -8.1990 ca         1 OK0      -0.055500
     21 C13        -22.3410   -11.5630    -9.0780 cc         1 OK0       0.434000
     22 N4         -21.7920   -10.3540    -9.1810 na         1 OK0      -0.212700
     23 N3         -22.4010    -9.6880   -10.1450 nc         1 OK0      -0.189800
     24 N2         -23.2840   -10.4750   -10.6210 nd         1 OK0      -0.030000
     25 N1         -23.2720   -11.6510    -9.9950 nd         1 OK0      -0.335000
     26 C17        -21.0260   -14.8460    -6.7470 ca         1 OK0      -0.072000
     27 C18        -20.7930   -14.7870    -8.1050 ca         1 OK0      -0.067000
     28 C11        -21.1860   -13.6850    -8.8440 cp         1 OK0       0.020000
     29 C          -20.8500   -13.6340   -10.2840 cp         1 OK0      -0.071000
     30 C10        -21.3390   -14.6070   -11.1500 ca         1 OK0      -0.086000
     31 N          -18.1700   -12.6520   -16.6810 n7         1 OK0      -0.863400
     32 H1         -19.5730   -11.9090   -10.1310 ha         1 OK0       0.112000
     33 H2         -18.9590   -11.8960   -12.4870 ha         1 OK0       0.119500
     34 H3         -20.2470   -14.4810   -14.9360 hc         1 OK0       0.049700
     35 H4         -17.9560   -14.8860   -14.1540 hc         1 OK0       0.050700
     36 H5         -17.6410   -13.1560   -14.0750 hc         1 OK0       0.050700
     37 H6         -18.2840   -14.7790   -16.5750 h1         1 OK0       0.030450
     38 H7         -16.7290   -14.0600   -16.1610 h1         1 OK0       0.030450
     39 H8         -19.8360   -11.4980   -17.1550 h1         1 OK0       0.030450
     40 H9         -20.1640   -13.2300   -17.1680 h1         1 OK0       0.030450
     41 H10        -19.6320   -11.5050   -14.7100 hc         1 OK0       0.050700
     42 H11        -21.1680   -12.2240   -15.1780 hc         1 OK0       0.050700
     43 H12        -21.3800   -15.3630   -13.1480 ha         1 OK0       0.119500
     44 H13        -21.6520   -10.5820    -4.6370 hn         1 OK0       0.486000
     45 H14        -21.6600    -9.7610    -6.1060 hn         1 OK0       0.486000
     46 H15        -21.0370    -9.9380    -8.6510 hn         1 OK0       0.374000
     47 H16        -20.6710   -15.7120    -6.2080 ha         1 OK0       0.142000
     48 H17        -20.2680   -15.5980    -8.5910 ha         1 OK0       0.137000
     49 H18        -22.0080   -15.3730   -10.7780 ha         1 OK0       0.112000
     50 H19        -17.8480   -12.6330   -17.6400 hn         1 OK0       0.412000
@<TRIPOS>BOND
     1     1     2 ar  
     2     1    29 ar  
     3     1    32 1   
     4     2     3 ar  
     5     2    33 1   
     6     3     4 1   
     7     3     9 ar  
     8     4     5 1   
     9     4     8 1   
    10     4    34 1   
    11     5     6 1   
    12     5    35 1   
    13     5    36 1   
    14     6    31 1   
    15     6    37 1   
    16     6    38 1   
    17     7     8 1   
    18     7    31 1   
    19     7    39 1   
    20     7    40 1   
    21     8    41 1   
    22     8    42 1   
    23     9    30 ar  
    24     9    43 1   
    25    10    12 1   
    26    10    15 ar  
    27    10    26 ar  
    28    11    12 1   
    29    12    13 1   
    30    12    14 1   
    31    15    16 1   
    32    15    20 ar  
    33    16    17 2   
    34    16    18 1   
    35    16    19 2   
    36    18    44 1   
    37    18    45 1   
    38    20    21 1   
    39    20    28 ar  
    40    21    22 1   
    41    21    25 2   
    42    22    23 1   
    43    22    46 1   
    44    23    24 2   
    45    24    25 1   
    46    26    27 ar  
    47    26    47 1   
    48    27    28 ar  
    49    27    48 1   
    50    28    29 1   
    51    29    30 ar  
    52    30    49 1   
    53    31    50 1   
@<TRIPOS>SUBSTRUCTURE
     1 OK0         1 TEMP              0 ****  ****    0 ROOT
