@<TRIPOS>MOLECULE
OK1
   37    39     1     0     0
SMALL
No Charge or Current Charge


@<TRIPOS>ATOM
      1 C4           0.7050    -0.8060     0.5270 ca         1 OK1      -0.053000
      2 C5          -0.6790    -1.0320     0.3640 ca         1 OK1       0.079000
      3 C6          -1.5500     0.0200    -0.0450 ca         1 OK1       0.134100
      4 C7          -3.8520     0.7470    -0.5660 c3         1 OK1       0.178600
      5 C8          -5.2360     0.0820    -0.6090 cy         1 OK1      -0.085700
      6 C10         -7.2590    -0.1210     0.0320 cy         1 OK1      -0.096400
      7 C13          0.3480     1.4990    -0.1180 ca         1 OK1       0.079100
      8 C14          2.3740     2.4480     0.1560 c          1 OK1       0.678100
      9 N            2.4530     1.0680     0.4190 n          1 OK1      -0.294000
     10 C2           3.7200     0.3370     0.5980 c3         1 OK1       0.132000
     11 C1           4.1560    -0.4280    -0.6660 c3         1 OK1      -0.238400
     12 C            5.4760    -1.1400    -0.3720 c          1 OK1       0.725000
     13 O1           5.4280    -2.2630     0.1040 o          1 OK1      -0.730500
     14 O            6.5140    -0.5280    -0.5680 o          1 OK1      -0.730500
     15 O3           1.0530     2.6720    -0.1690 os         1 OK1      -0.306200
     16 C3           1.1950     0.4640     0.2030 ca         1 OK1      -0.017400
     17 C12         -1.0290     1.3220    -0.2700 ca         1 OK1      -0.178000
     18 Cl          -1.3200    -2.6400     0.7090 cl         1 OK1      -0.194000
     19 O2          -2.8980    -0.2550    -0.1760 os         1 OK1      -0.333100
     20 C11         -5.8880    -0.3870     0.7370 cy         1 OK1      -0.083400
     21 C9          -6.5000     0.9980    -0.7550 cy         1 OK1      -0.083400
     22 H1           1.3650    -1.5940     0.8800 ha         1 OK1       0.158000
     23 H2          -3.6210     1.1480    -1.5620 h1         1 OK1       0.036700
     24 H3          -3.8760     1.5710     0.1590 h1         1 OK1       0.036700
     25 H4          -5.1950    -0.7110    -1.3670 hc         1 OK1       0.069700
     26 H5          -7.6230    -0.9500    -0.5880 hc         1 OK1       0.046200
     27 H6          -8.0750     0.2160     0.6800 hc         1 OK1       0.046200
     28 H7           4.5070     1.0470     0.8850 h1         1 OK1       0.069700
     29 H8           3.5990    -0.3690     1.4300 h1         1 OK1       0.069700
     30 H9           3.3620    -1.1540    -0.8770 hc         1 OK1       0.032200
     31 H10          4.2870     0.3300    -1.4480 hc         1 OK1       0.032200
     32 H12         -1.6570     2.1690    -0.5290 ha         1 OK1       0.132000
     33 H13         -5.6910    -1.4250     1.0290 hc         1 OK1       0.051450
     34 H14         -5.6840     0.2620     1.5980 hc         1 OK1       0.051450
     35 H15         -6.4350     1.9590    -0.2300 hc         1 OK1       0.051450
     36 H16         -6.8440     1.1820    -1.7790 hc         1 OK1       0.051450
     37 O4           3.2750     3.2740     0.1900 o          1 OK1      -0.516000
@<TRIPOS>BOND
     1     1     2 ar  
     2     1    16 ar  
     3     1    22 1   
     4     2     3 ar  
     5     2    18 1   
     6     3    17 ar  
     7     3    19 1   
     8     4     5 1   
     9     4    19 1   
    10     4    23 1   
    11     4    24 1   
    12     5    20 1   
    13     5    21 1   
    14     5    25 1   
    15     6    20 1   
    16     6    21 1   
    17     6    26 1   
    18     6    27 1   
    19     7    15 1   
    20     7    16 ar  
    21     7    17 ar  
    22     8     9 1   
    23     8    15 1   
    24     8    37 2   
    25     9    10 1   
    26     9    16 1   
    27    10    11 1   
    28    10    28 1   
    29    10    29 1   
    30    11    12 1   
    31    11    30 1   
    32    11    31 1   
    33    12    13 1   
    34    12    14 1   
    35    17    32 1   
    36    20    33 1   
    37    20    34 1   
    38    21    35 1   
    39    21    36 1   
@<TRIPOS>SUBSTRUCTURE
     1 OK1         1 TEMP              0 ****  ****    0 ROOT
