@<TRIPOS>MOLECULE
OK1
   37    39     1     0     0
SMALL
bcc


@<TRIPOS>ATOM
      1 C4           0.6630    -0.8410     0.4510 ca         1 OK1      -0.071000
      2 C5          -0.7000    -1.0370     0.2680 ca         1 OK1      -0.012600
      3 C6          -1.5850     0.0100    -0.0290 ca         1 OK1       0.134100
      4 C7          -3.8100     0.7000    -0.5140 c3         1 OK1       0.155400
      5 C8          -5.1620     0.0520    -0.6430 cy         1 OK1      -0.085700
      6 C10         -7.1760     0.0450     0.0980 cy         1 OK1      -0.096400
      7 C13          0.2580     1.4860     0.0370 ca         1 OK1       0.079100
      8 C14          2.2790     2.3590     0.2170 c          1 OK1       0.820600
      9 N            2.3790     1.0260     0.4520 n          1 OK1      -0.361000
     10 C2           3.6280     0.3170     0.6740 c3         1 OK1       0.132000
     11 C1           4.1740    -0.2980    -0.6040 c3         1 OK1      -0.238400
     12 C            5.4870    -1.0770    -0.4030 c          1 OK1       0.935600
     13 O1           5.9600    -1.1080     0.7500 o          1 OK1      -0.835800
     14 O            5.9670    -1.6100    -1.4220 o          1 OK1      -0.835800
     15 O3           0.9640     2.6460    -0.0280 os         1 OK1      -0.306200
     16 C3           1.1270     0.4520     0.3290 ca         1 OK1      -0.017400
     17 C12         -1.0920     1.3140    -0.1470 ca         1 OK1      -0.196000
     18 CL          -1.3390    -2.6370     0.4060 cl         1 OK1      -0.102400
     19 O2          -2.8730    -0.3180    -0.1830 os         1 OK1      -0.309900
     20 C11         -5.8390    -0.5170     0.6180 cy         1 OK1      -0.083400
     21 C9          -6.3750     0.9860    -0.8230 cy         1 OK1      -0.083400
     22 H1           1.3170    -1.6730     0.6750 ha         1 OK1       0.176000
     23 H2          -3.5260     1.1890    -1.4530 h1         1 OK1       0.036700
     24 H3          -3.8290     1.4660     0.2710 h1         1 OK1       0.036700
     25 H4          -5.1410    -0.6970    -1.4400 hc         1 OK1       0.069700
     26 H5          -7.7310    -0.6990    -0.4750 hc         1 OK1       0.046200
     27 H6          -7.8530     0.5000     0.8220 hc         1 OK1       0.046200
     28 H7           4.3340     1.0240     1.1050 h1         1 OK1       0.069700
     29 H8           3.4450    -0.4440     1.4320 h1         1 OK1       0.069700
     30 H9           3.4310    -0.9690    -1.0470 hc         1 OK1       0.032200
     31 H10          4.3400     0.4880    -1.3470 hc         1 OK1       0.032200
     32 H12         -1.7310     2.1570    -0.3700 ha         1 OK1       0.150000
     33 H13         -5.7670    -1.5910     0.7930 hc         1 OK1       0.051450
     34 H14         -5.5070     0.0040     1.5180 hc         1 OK1       0.051450
     35 H15         -6.2080     1.9590    -0.3550 hc         1 OK1       0.051450
     36 H16         -6.7410     1.1490    -1.8370 hc         1 OK1       0.051450
     37 O4           3.1360     3.2030     0.2090 o          1 OK1      -0.591500
@<TRIPOS>BOND
     1     1     2 ar  
     2     1    16 ar  
     3     1    22 1   
     4     2     3 ar  
     5     2    18 1   
     6     3    17 ar  
     7     3    19 1   
     8     4     5 1   
     9     4    19 1   
    10     4    23 1   
    11     4    24 1   
    12     5    20 1   
    13     5    21 1   
    14     5    25 1   
    15     6    20 1   
    16     6    21 1   
    17     6    26 1   
    18     6    27 1   
    19     7    15 1   
    20     7    16 ar  
    21     7    17 ar  
    22     8     9 1   
    23     8    15 1   
    24     8    37 2   
    25     9    10 1   
    26     9    16 1   
    27    10    11 1   
    28    10    28 1   
    29    10    29 1   
    30    11    12 1   
    31    11    30 1   
    32    11    31 1   
    33    12    13 1   
    34    12    14 1   
    35    17    32 1   
    36    20    33 1   
    37    20    34 1   
    38    21    35 1   
    39    21    36 1   
@<TRIPOS>SUBSTRUCTURE
     1 OK1         1 TEMP              0 ****  ****    0 ROOT
