@<TRIPOS>MOLECULE
OK2
   91    97     1     0     0
SMALL
No Charge or Current Charge


@<TRIPOS>ATOM
      1 C1          -3.8530    -5.2770     8.1810 c3         1 OK2       0.156100
      2 N1          -5.2260    -5.7470     8.4600 n3         1 OK2      -0.719600
      3 C2          -5.4510    -6.0550     9.9040 c6         1 OK2       0.162800
      4 C3          -6.9140    -6.5220    10.1890 c6         1 OK2       0.165300
      5 N2          -7.3150    -7.7010     9.3580 n3         1 OK2      -0.721600
      6 C4          -8.7040    -8.1560     9.6670 c3         1 OK2       0.172800
      7 C5          -9.1740    -9.4680     8.9810 c3         1 OK2       0.166600
      8 O1          -9.5670    -9.1760     7.6250 os         1 OK2      -0.341100
      9 C6          -9.9950   -10.1530     6.7460 ca         1 OK2       0.152100
     10 C7         -10.2810    -9.7830     5.4140 ca         1 OK2       0.058000
     11 Cl1        -10.0380    -8.0960     4.9220 cl         1 OK2      -0.218000
     12 C8         -10.7350   -10.7450     4.4790 ca         1 OK2      -0.004300
     13 C9         -11.0760   -10.3160     3.0480 c3         1 OK2      -0.048800
     14 C10        -10.8540   -12.0990     4.8850 ca         1 OK2      -0.064800
     15 C11        -10.5820   -12.4550     6.2200 ca         1 OK2      -0.021000
     16 C12        -10.1610   -11.4930     7.1480 ca         1 OK2      -0.203000
     17 C13        -11.2210   -13.1610     3.9480 cc         1 OK2       0.073600
     18 C14        -10.4050   -13.5010     2.8610 cd         1 OK2      -0.056600
     19 S1         -11.1210   -14.8220     1.8760 ss         1 OK2      -0.148900
     20 C15        -12.5060   -14.8760     2.9720 ca         1 OK2       0.170300
     21 C16        -12.4380   -13.9500     3.9900 ca         1 OK2      -0.208800
     22 C17        -13.5170   -13.8820     4.8950 ca         1 OK2       0.456300
     23 O2         -13.5190   -12.9190     5.8820 os         1 OK2      -0.429300
     24 C18        -14.4510   -12.9750     6.9990 c3         1 OK2       0.027300
     25 C19        -14.4310   -11.5870     7.6890 c3         1 OK2      -0.018100
     26 C20        -14.6310   -10.4060     6.7310 ca         1 OK2      -0.087300
     27 C21        -15.8320   -10.2380     5.9990 ca         1 OK2       0.140100
     28 O3         -16.8500   -11.1580     6.1690 os         1 OK2      -0.339100
     29 C22        -18.0840   -11.0970     5.4280 c3         1 OK2       0.123300
     30 C23        -18.9430   -12.3080     5.7800 ca         1 OK2       0.280300
     31 N3         -20.1910   -12.0750     6.2890 nb         1 OK2      -0.660000
     32 C24        -20.9190   -13.1890     6.5820 ca         1 OK2       0.267900
     33 C25        -20.4190   -14.5030     6.3710 ca         1 OK2       0.276900
     34 N4         -19.1790   -14.7390     5.8610 nb         1 OK2      -0.615000
     35 C26        -18.4470   -13.6250     5.5680 ca         1 OK2       0.340900
     36 C27        -15.9690    -9.1380     5.1210 ca         1 OK2      -0.206000
     37 C28        -14.9240    -8.2110     4.9770 ca         1 OK2      -0.093000
     38 C29        -13.7420    -8.3710     5.7120 ca         1 OK2      -0.147000
     39 C30        -13.5970    -9.4600     6.5850 ca         1 OK2      -0.070000
     40 C31        -14.1430   -14.1260     8.0180 c          1 OK2       0.717000
     41 O4         -14.9650   -14.3390     8.9000 o          1 OK2      -0.708000
     42 O5         -13.1230   -14.7920     7.8870 o          1 OK2      -0.708000
     43 N5         -14.5730   -14.7190     4.7510 nb         1 OK2      -0.261000
     44 C32        -14.5270   -15.5980     3.7260 ca         1 OK2       0.181900
     45 N6         -13.5400   -15.7180     2.8130 nb         1 OK2      -0.216000
     46 C33         -9.0200   -13.0540     2.5440 ca         1 OK2      -0.017800
     47 C34         -8.5370   -13.1870     1.2200 ca         1 OK2      -0.072500
     48 C35         -7.2400   -12.7680     0.8740 ca         1 OK2      -0.155500
     49 C36         -6.3980   -12.2200     1.8490 ca         1 OK2       0.159000
     50 F1          -5.1520   -11.8210     1.5170 f          1 OK2      -0.189000
     51 C37         -6.8450   -12.0960     3.1690 ca         1 OK2      -0.155500
     52 C38         -8.1420   -12.5130     3.5170 ca         1 OK2      -0.072500
     53 C39         -7.0770    -7.4010     7.9070 c6         1 OK2       0.165300
     54 C40         -5.6170    -6.9220     7.6240 c6         1 OK2       0.162800
     55 H1          -3.6210    -4.3850     8.7780 h1         1 OK2       0.026700
     56 H2          -3.1160    -6.0550     8.4230 h1         1 OK2       0.026700
     57 H3          -3.7420    -5.0150     7.1210 h1         1 OK2       0.026700
     58 H5          -4.7610    -6.8460    10.2340 h1         1 OK2       0.035450
     59 H6          -5.2400    -5.1670    10.5190 h1         1 OK2       0.035450
     60 H7          -7.5920    -5.6770     9.9970 h1         1 OK2       0.042450
     61 H8          -7.0000    -6.7640    11.2580 h1         1 OK2       0.042450
     62 H10         -9.4240    -7.3620     9.4250 h1         1 OK2       0.041200
     63 H11         -8.7810    -8.3240    10.7500 h1         1 OK2       0.041200
     64 H12        -10.0300    -9.8680     9.5400 h1         1 OK2       0.045200
     65 H13         -8.3630   -10.2070     9.0110 h1         1 OK2       0.045200
     66 H14        -11.6320    -9.3720     3.0350 hc         1 OK2       0.049700
     67 H15        -10.1660   -10.1810     2.4530 hc         1 OK2       0.049700
     68 H16        -11.7100   -11.0440     2.5290 hc         1 OK2       0.049700
     69 H17        -10.6910   -13.4920     6.5330 ha         1 OK2       0.156000
     70 H18         -9.9590   -11.8090     8.1670 ha         1 OK2       0.126000
     71 H19        -15.4680   -13.1550     6.6330 h1         1 OK2       0.063700
     72 H20        -15.2130   -11.5660     8.4580 hc         1 OK2       0.067700
     73 H21        -13.4810   -11.4860     8.2280 hc         1 OK2       0.067700
     74 H22        -18.6290   -10.1730     5.6640 h1         1 OK2       0.047700
     75 H23        -17.8860   -11.1110     4.3490 h1         1 OK2       0.047700
     76 H24        -21.9160   -13.0300     6.9900 h4         1 OK2       0.015100
     77 H25        -21.0240   -15.3750     6.6130 h4         1 OK2       0.019100
     78 H26        -17.4500   -13.7820     5.1570 h4         1 OK2       0.094100
     79 H27        -16.8770    -8.9830     4.5460 ha         1 OK2       0.106000
     80 H28        -15.0350    -7.3650     4.3020 ha         1 OK2       0.098000
     81 H29        -12.9370    -7.6470     5.6080 ha         1 OK2       0.112000
     82 H30        -12.6760    -9.5680     7.1520 ha         1 OK2       0.124000
     83 H32        -15.3770   -16.2690     3.6180 h5         1 OK2       0.039100
     84 H33         -9.1730   -13.5910     0.4370 ha         1 OK2       0.126000
     85 H34         -6.8890   -12.8670    -0.1510 ha         1 OK2       0.125500
     86 H35         -6.1820   -11.6860     3.9270 ha         1 OK2       0.125500
     87 H36         -8.4280   -12.4410     4.5580 ha         1 OK2       0.126000
     88 H37         -7.7750    -6.6250     7.5610 h1         1 OK2       0.042450
     89 H38         -7.2560    -8.2940     7.2920 h1         1 OK2       0.042450
     90 H39         -4.9320    -7.7620     7.8130 h1         1 OK2       0.035450
     91 H40         -5.5310    -6.6730     6.5560 h1         1 OK2       0.035450
@<TRIPOS>BOND
     1     1     2 1   
     2     1    55 1   
     3     1    56 1   
     4     1    57 1   
     5     2     3 1   
     6     2    54 1   
     7     3     4 1   
     8     3    58 1   
     9     3    59 1   
    10     4     5 1   
    11     4    60 1   
    12     4    61 1   
    13     5     6 1   
    14     5    53 1   
    15     6     7 1   
    16     6    62 1   
    17     6    63 1   
    18     7     8 1   
    19     7    64 1   
    20     7    65 1   
    21     8     9 1   
    22     9    10 ar  
    23     9    16 ar  
    24    10    11 1   
    25    10    12 ar  
    26    12    13 1   
    27    12    14 ar  
    28    13    66 1   
    29    13    67 1   
    30    13    68 1   
    31    14    15 ar  
    32    14    17 1   
    33    15    16 ar  
    34    15    69 1   
    35    16    70 1   
    36    17    18 2   
    37    17    21 1   
    38    18    19 1   
    39    18    46 1   
    40    19    20 1   
    41    20    21 ar  
    42    20    45 ar  
    43    21    22 ar  
    44    22    23 1   
    45    22    43 ar  
    46    23    24 1   
    47    24    25 1   
    48    24    40 1   
    49    24    71 1   
    50    25    26 1   
    51    25    72 1   
    52    25    73 1   
    53    26    27 ar  
    54    26    39 ar  
    55    27    28 1   
    56    27    36 ar  
    57    28    29 1   
    58    29    30 1   
    59    29    74 1   
    60    29    75 1   
    61    30    31 ar  
    62    30    35 ar  
    63    31    32 ar  
    64    32    33 ar  
    65    32    76 1   
    66    33    34 ar  
    67    33    77 1   
    68    34    35 ar  
    69    35    78 1   
    70    36    37 ar  
    71    36    79 1   
    72    37    38 ar  
    73    37    80 1   
    74    38    39 ar  
    75    38    81 1   
    76    39    82 1   
    77    40    41 1   
    78    40    42 1   
    79    43    44 ar  
    80    44    45 ar  
    81    44    83 1   
    82    46    47 ar  
    83    46    52 ar  
    84    47    48 ar  
    85    47    84 1   
    86    48    49 ar  
    87    48    85 1   
    88    49    50 1   
    89    49    51 ar  
    90    51    52 ar  
    91    51    86 1   
    92    52    87 1   
    93    53    54 1   
    94    53    88 1   
    95    53    89 1   
    96    54    90 1   
    97    54    91 1   
@<TRIPOS>SUBSTRUCTURE
     1 OK2         1 TEMP              0 ****  ****    0 ROOT
