@<TRIPOS>MOLECULE
OK2
   91    97     1     0     0
SMALL
abcg2


@<TRIPOS>ATOM
      1 C1          -4.1820    -5.2810     8.4050 c3         1 OK2       0.156100
      2 N1          -5.5160    -5.7270     8.7290 n3         1 OK2      -0.719600
      3 C2          -5.5320    -6.5690     9.9070 c6         1 OK2       0.162800
      4 C3          -6.9490    -6.9790    10.2560 c6         1 OK2       0.165300
      5 N2          -7.5700    -7.6830     9.1470 n3         1 OK2      -0.721600
      6 C4          -8.8950    -8.1640     9.4930 c3         1 OK2       0.172800
      7 C5          -9.3050    -9.4410     8.7920 c3         1 OK2       0.166600
      8 O1          -9.5470    -9.1810     7.4170 os         1 OK2      -0.341100
      9 C6          -9.8880   -10.1900     6.6110 ca         1 OK2       0.152100
     10 C7         -10.0410    -9.8930     5.2530 ca         1 OK2       0.058000
     11 CL1         -9.7900    -8.2490     4.7620 cl         1 OK2      -0.218000
     12 C8         -10.4000   -10.8460     4.3050 ca         1 OK2      -0.004300
     13 C9         -10.5840   -10.4490     2.8720 c3         1 OK2      -0.048800
     14 C10        -10.5910   -12.1630     4.7460 ca         1 OK2      -0.064800
     15 C11        -10.4600   -12.4620     6.0960 ca         1 OK2      -0.021000
     16 C12        -10.1110   -11.5000     7.0260 ca         1 OK2      -0.203000
     17 C13        -10.8800   -13.2590     3.8000 cc         1 OK2       0.073600
     18 C14         -9.9860   -13.6880     2.8630 cd         1 OK2      -0.056600
     19 S1         -10.6020   -14.9920     1.8840 ss         1 OK2      -0.148900
     20 C15        -12.0970   -14.9870     2.7470 ca         1 OK2       0.170300
     21 C16        -12.1010   -14.0090     3.7400 ca         1 OK2      -0.208800
     22 C17        -13.2970   -13.9440     4.4890 ca         1 OK2       0.456300
     23 O2         -13.4030   -13.0110     5.4020 os         1 OK2      -0.429300
     24 C18        -14.4600   -13.0840     6.3610 c3         1 OK2       0.027300
     25 C19        -14.3890   -11.7770     7.1470 c3         1 OK2      -0.018100
     26 C20        -14.6750   -10.5670     6.3040 ca         1 OK2      -0.087300
     27 C21        -15.9890   -10.2440     5.9370 ca         1 OK2       0.140100
     28 O3         -16.9450   -11.0730     6.4130 os         1 OK2      -0.339100
     29 C22        -18.2840   -10.8760     6.0440 c3         1 OK2       0.123300
     30 C23        -19.1170   -11.9770     6.6340 ca         1 OK2       0.280300
     31 N3         -20.4280   -11.8310     6.4850 nb         1 OK2      -0.660000
     32 C24        -21.2100   -12.7800     6.9740 ca         1 OK2       0.267900
     33 C25        -20.6840   -13.8880     7.6210 ca         1 OK2       0.276900
     34 N4         -19.3780   -14.0410     7.7720 nb         1 OK2      -0.615000
     35 C26        -18.5900   -13.0920     7.2800 ca         1 OK2       0.340900
     36 C27        -16.2510    -9.1370     5.1370 ca         1 OK2      -0.206000
     37 C28        -15.1990    -8.3420     4.6930 ca         1 OK2      -0.093000
     38 C29        -13.8950    -8.6440     5.0440 ca         1 OK2      -0.147000
     39 C30        -13.6490    -9.7530     5.8470 ca         1 OK2      -0.070000
     40 C31        -14.2930   -14.3020     7.3020 c          1 OK2       0.717000
     41 O4         -15.2970   -14.5430     7.9980 o          1 OK2      -0.708000
     42 O5         -13.1980   -14.8860     7.2990 o          1 OK2      -0.708000
     43 N5         -14.2900   -14.7740     4.2450 nb         1 OK2      -0.261000
     44 C32        -14.1440   -15.6660     3.2670 ca         1 OK2       0.181900
     45 N6         -13.0970   -15.8250     2.4850 nb         1 OK2      -0.216000
     46 C33         -8.6290   -13.1890     2.6190 ca         1 OK2      -0.017800
     47 C34         -8.1840   -12.9250     1.3240 ca         1 OK2      -0.072500
     48 C35         -6.9040   -12.4430     1.0920 ca         1 OK2      -0.155500
     49 C36         -6.0740   -12.2260     2.1740 ca         1 OK2       0.159000
     50 F1          -4.8350   -11.7580     1.9620 f          1 OK2      -0.189000
     51 C37         -6.4770   -12.4820     3.4710 ca         1 OK2      -0.155500
     52 C38         -7.7550   -12.9680     3.6860 ca         1 OK2      -0.072500
     53 C39         -7.5540    -6.8380     7.9640 c6         1 OK2       0.165300
     54 C40         -6.1380    -6.4190     7.6200 c6         1 OK2       0.162800
     55 H1          -3.7590    -4.7250     9.2420 h1         1 OK2       0.026700
     56 H2          -3.4930    -6.1070     8.1680 h1         1 OK2       0.026700
     57 H3          -4.2100    -4.6150     7.5410 h1         1 OK2       0.026700
     58 H5          -4.9160    -7.4760     9.7710 h1         1 OK2       0.035450
     59 H6          -5.1050    -6.0170    10.7490 h1         1 OK2       0.035450
     60 H7          -7.5220    -6.0820    10.5450 h1         1 OK2       0.042450
     61 H8          -6.9210    -7.6380    11.1270 h1         1 OK2       0.042450
     62 H10         -9.6710    -7.3950     9.3540 h1         1 OK2       0.041200
     63 H11         -8.9010    -8.4090    10.5580 h1         1 OK2       0.041200
     64 H12        -10.2140    -9.8260     9.2660 h1         1 OK2       0.045200
     65 H13         -8.5170   -10.1930     8.9040 h1         1 OK2       0.045200
     66 H14        -11.2470    -9.5870     2.7880 hc         1 OK2       0.049700
     67 H15         -9.6330   -10.1720     2.4140 hc         1 OK2       0.049700
     68 H16        -11.0120   -11.2570     2.2850 hc         1 OK2       0.049700
     69 H17        -10.6260   -13.4760     6.4340 ha         1 OK2       0.156000
     70 H18        -10.0160   -11.7820     8.0660 ha         1 OK2       0.126000
     71 H19        -15.4180   -13.1590     5.8430 h1         1 OK2       0.063700
     72 H20        -15.0950   -11.8470     7.9760 hc         1 OK2       0.067700
     73 H21        -13.3940   -11.6840     7.5910 hc         1 OK2       0.067700
     74 H22        -18.6630    -9.9110     6.4020 h1         1 OK2       0.047700
     75 H23        -18.4010   -10.8860     4.9530 h1         1 OK2       0.047700
     76 H24        -22.2800   -12.6610     6.8520 h4         1 OK2       0.015100
     77 H25        -21.3330   -14.6590     8.0200 h4         1 OK2       0.019100
     78 H26        -17.5230   -13.2350     7.4070 h4         1 OK2       0.094100
     79 H27        -17.2620    -8.8760     4.8530 ha         1 OK2       0.106000
     80 H28        -15.4140    -7.4840     4.0700 ha         1 OK2       0.098000
     81 H29        -13.0720    -8.0290     4.7030 ha         1 OK2       0.112000
     82 H30        -12.6330    -9.9960     6.1290 ha         1 OK2       0.124000
     83 H32        -14.9840   -16.3300     3.0970 h5         1 OK2       0.039100
     84 H33         -8.8450   -13.0800     0.4800 ha         1 OK2       0.126000
     85 H34         -6.5650   -12.2350     0.0860 ha         1 OK2       0.125500
     86 H35         -5.8030   -12.3150     4.3010 ha         1 OK2       0.125500
     87 H36         -8.0680   -13.1910     4.6970 ha         1 OK2       0.126000
     88 H37         -8.1720    -5.9340     8.1110 h1         1 OK2       0.042450
     89 H38         -7.9710    -7.3750     7.1140 h1         1 OK2       0.042450
     90 H39         -5.5590    -7.3110     7.3210 h1         1 OK2       0.035450
     91 H40         -6.1670    -5.7530     6.7530 h1         1 OK2       0.035450
@<TRIPOS>BOND
     1     1     2 1   
     2     1    55 1   
     3     1    56 1   
     4     1    57 1   
     5     2     3 1   
     6     2    54 1   
     7     3     4 1   
     8     3    58 1   
     9     3    59 1   
    10     4     5 1   
    11     4    60 1   
    12     4    61 1   
    13     5     6 1   
    14     5    53 1   
    15     6     7 1   
    16     6    62 1   
    17     6    63 1   
    18     7     8 1   
    19     7    64 1   
    20     7    65 1   
    21     8     9 1   
    22     9    10 ar  
    23     9    16 ar  
    24    10    11 1   
    25    10    12 ar  
    26    12    13 1   
    27    12    14 ar  
    28    13    66 1   
    29    13    67 1   
    30    13    68 1   
    31    14    15 ar  
    32    14    17 1   
    33    15    16 ar  
    34    15    69 1   
    35    16    70 1   
    36    17    18 2   
    37    17    21 1   
    38    18    19 1   
    39    18    46 1   
    40    19    20 1   
    41    20    21 ar  
    42    20    45 ar  
    43    21    22 ar  
    44    22    23 1   
    45    22    43 ar  
    46    23    24 1   
    47    24    25 1   
    48    24    40 1   
    49    24    71 1   
    50    25    26 1   
    51    25    72 1   
    52    25    73 1   
    53    26    27 ar  
    54    26    39 ar  
    55    27    28 1   
    56    27    36 ar  
    57    28    29 1   
    58    29    30 1   
    59    29    74 1   
    60    29    75 1   
    61    30    31 ar  
    62    30    35 ar  
    63    31    32 ar  
    64    32    33 ar  
    65    32    76 1   
    66    33    34 ar  
    67    33    77 1   
    68    34    35 ar  
    69    35    78 1   
    70    36    37 ar  
    71    36    79 1   
    72    37    38 ar  
    73    37    80 1   
    74    38    39 ar  
    75    38    81 1   
    76    39    82 1   
    77    40    41 1   
    78    40    42 1   
    79    43    44 ar  
    80    44    45 ar  
    81    44    83 1   
    82    46    47 ar  
    83    46    52 ar  
    84    47    48 ar  
    85    47    84 1   
    86    48    49 ar  
    87    48    85 1   
    88    49    50 1   
    89    49    51 ar  
    90    51    52 ar  
    91    51    86 1   
    92    52    87 1   
    93    53    54 1   
    94    53    88 1   
    95    53    89 1   
    96    54    90 1   
    97    54    91 1   
@<TRIPOS>SUBSTRUCTURE
     1 OK2         1 TEMP              0 ****  ****    0 ROOT
