@<TRIPOS>MOLECULE
OK4
   62    62     1     0     0
SMALL
abcg2


@<TRIPOS>ATOM
      1 C25         -0.1600     5.8300     0.3480 c          1 OK4       0.604100
      2 O26         -1.0950     5.9870    -0.4270 o          1 OK4      -0.615100
      3 C27          0.2240     6.8820     1.3590 c3         1 OK4      -0.177100
      4 N24          0.5820     4.7110     0.3810 ns         1 OK4      -0.500900
      5 C22          0.3820     3.5960    -0.5100 c3         1 OK4       0.035700
      6 C20          0.8220     2.3240     0.2010 c          1 OK4       0.595100
      7 O21          1.6790     2.3320     1.0720 o          1 OK4      -0.612100
      8 C23          1.1760     3.7510    -1.8100 c3         1 OK4      -0.108100
      9 C11         -2.4370    -2.2940    -0.5000 c3         1 OK4      -0.097700
     10 C14         -6.0630    -2.1890    -0.2360 cc         1 OK4      -0.215300
     11 C12         -3.8640    -2.2380    -0.0720 cc         1 OK4       0.403800
     12 C15         -5.6700    -2.1270     1.0700 cd         1 OK4       0.269900
     13 C06          2.1500    -0.2960    -0.2840 c          1 OK4       0.595100
     14 O07          2.5750     0.2130    -1.3070 o          1 OK4      -0.602100
     15 C08          0.7090    -0.0960     0.1830 c3         1 OK4       0.039700
     16 C09         -0.1670    -1.2000    -0.4110 c3         1 OK4      -0.093400
     17 N13         -4.8970    -2.2580    -0.9460 na         1 OK4      -0.301500
     18 N16         -4.3030    -2.1570     1.1580 nd         1 OK4      -0.679000
     19 O18         -8.3500    -1.8120     0.0860 oh         1 OK4      -0.644000
     20 N19          0.2320     1.2000    -0.2260 ns         1 OK4      -0.480900
     21 N05          2.8850    -1.1040     0.4940 ns         1 OK4      -0.476900
     22 C04          4.1800    -1.5670     0.0800 c3         1 OK4       0.033700
     23 C28          4.0470    -2.4950    -1.1330 c          1 OK4       0.595100
     24 O29          3.0060    -3.0730    -1.3970 o          1 OK4      -0.607100
     25 C02          4.9270    -2.2610     1.2340 c3         1 OK4      -0.064700
     26 C01          5.1430    -1.2950     2.3940 c3         1 OK4      -0.091600
     27 C03          4.2570    -3.5510     1.7020 c3         1 OK4      -0.091600
     28 N30          5.1770    -2.6350    -1.8400 nt         1 OK4      -0.605000
     29 H29         -0.5640     6.9640     2.1090 hc         1 OK4       0.060700
     30 H30          1.1610     6.6720     1.8700 hc         1 OK4       0.060700
     31 H31          0.3050     7.8490     0.8660 hc         1 OK4       0.060700
     32 H28          1.3630     4.6510     1.0160 hn         1 OK4       0.335500
     33 H24         -0.6820     3.5300    -0.7470 h1         1 OK4       0.083700
     34 H25          0.8450     4.6420    -2.3410 hc         1 OK4       0.052033
     35 H26          2.2410     3.8480    -1.6020 hc         1 OK4       0.052033
     36 H27          1.0350     2.8920    -2.4660 hc         1 OK4       0.052033
     37 H1          -2.3860    -2.3030    -1.5920 hc         1 OK4       0.052700
     38 H2          -1.9940    -3.2360    -0.1640 hc         1 OK4       0.052700
     39 H5          -7.4040    -1.5320    -1.7480 h1         1 OK4       0.022200
     40 H6          -7.6200    -3.2080    -1.2680 h1         1 OK4       0.022200
     41 H7          -6.2940    -2.0590     1.9470 h4         1 OK4       0.048100
     42 H17          0.6650    -0.1670     1.2750 h1         1 OK4       0.077700
     43 H18          0.2590    -2.1630    -0.1200 hc         1 OK4       0.062700
     44 H19         -0.1100    -1.1560    -1.5040 hc         1 OK4       0.062700
     45 H20         -4.8160    -2.3070    -1.9500 hn         1 OK4       0.346000
     46 H22         -9.2270    -1.9680    -0.2760 ho         1 OK4       0.448000
     47 H23         -0.4180     1.2510    -0.9950 hn         1 OK4       0.325500
     48 H16          2.4440    -1.5400     1.2880 hn         1 OK4       0.323500
     49 H15          4.7780    -0.7000    -0.2210 h1         1 OK4       0.079700
     50 H11          5.9110    -2.5260     0.8370 hc         1 OK4       0.050700
     51 H10          5.6430    -0.3830     2.0660 hc         1 OK4       0.040533
     52 H8           4.2030    -1.0080     2.8690 hc         1 OK4       0.040533
     53 H9           5.7680    -1.7580     3.1600 hc         1 OK4       0.040533
     54 H12          4.8430    -3.9980     2.5050 hc         1 OK4       0.040533
     55 H13          3.2530    -3.3840     2.0990 hc         1 OK4       0.040533
     56 H14          4.1800    -4.2920     0.9060 hc         1 OK4       0.040533
     57 H32          6.0040    -2.1020    -1.6310 hn         1 OK4       0.313500
     58 H33          5.2090    -3.2400    -2.6440 hn         1 OK4       0.313500
     59 C10         -1.6190    -1.1260     0.0460 c3         1 OK4      -0.072400
     60 C17         -7.4060    -2.2030    -0.8780 c3         1 OK4       0.247900
     61 H3          -2.0770    -0.1880    -0.2790 hc         1 OK4       0.057200
     62 H4          -1.6640    -1.1320     1.1380 hc         1 OK4       0.057200
@<TRIPOS>BOND
     1     1     2 2   
     2     1     3 1   
     3     1     4 1   
     4     3    29 1   
     5     3    30 1   
     6     3    31 1   
     7     4     5 1   
     8     4    32 1   
     9     5     6 1   
    10     5     8 1   
    11     5    33 1   
    12     6     7 2   
    13     6    20 1   
    14     8    34 1   
    15     8    35 1   
    16     8    36 1   
    17     9    11 1   
    18     9    37 1   
    19     9    38 1   
    20     9    59 1   
    21    10    12 2   
    22    10    17 1   
    23    10    60 1   
    24    11    17 1   
    25    11    18 2   
    26    12    18 1   
    27    12    41 1   
    28    13    14 2   
    29    13    15 1   
    30    13    21 1   
    31    15    16 1   
    32    15    20 1   
    33    15    42 1   
    34    16    43 1   
    35    16    44 1   
    36    16    59 1   
    37    17    45 1   
    38    19    46 1   
    39    19    60 1   
    40    20    47 1   
    41    21    22 1   
    42    21    48 1   
    43    22    23 1   
    44    22    25 1   
    45    22    49 1   
    46    23    24 2   
    47    23    28 1   
    48    25    26 1   
    49    25    27 1   
    50    25    50 1   
    51    26    51 1   
    52    26    52 1   
    53    26    53 1   
    54    27    54 1   
    55    27    55 1   
    56    27    56 1   
    57    28    57 1   
    58    28    58 1   
    59    39    60 1   
    60    40    60 1   
    61    59    61 1   
    62    59    62 1   
@<TRIPOS>SUBSTRUCTURE
     1 OK4         1 TEMP              0 ****  ****    0 ROOT
