@<TRIPOS>MOLECULE
OK4
   62    62     1     0     0
SMALL
No Charge or Current Charge


@<TRIPOS>ATOM
      1 C25         -1.6820     5.2000     0.3040 c          1 OK4       0.604100
      2 O26         -1.6110     5.6620    -0.8260 o          1 OK4      -0.615100
      3 C27         -2.5650     5.8090     1.3850 c3         1 OK4      -0.177100
      4 N24         -0.9780     4.0850     0.6940 ns         1 OK4      -0.500900
      5 C22         -0.0490     3.3150    -0.1630 c3         1 OK4       0.035700
      6 C20          0.1550     1.8810     0.4080 c          1 OK4       0.595100
      7 O21         -0.2500     1.5380     1.5130 o          1 OK4      -0.612100
      8 C23          1.2940     4.0660    -0.3290 c3         1 OK4      -0.108100
      9 C11         -2.3530    -2.2000    -0.7040 c3         1 OK4      -0.097700
     10 C14         -5.8090    -1.1700     0.0190 cc         1 OK4      -0.215300
     11 C12         -3.7500    -1.9920    -0.1860 cc         1 OK4       0.403800
     12 C15         -5.5730    -2.1360     0.9650 cd         1 OK4       0.269900
     13 C06          2.5820    -0.7460    -0.6170 c          1 OK4       0.595100
     14 O07          3.2020    -0.0350    -1.3990 o          1 OK4      -0.602100
     15 C08          1.1510    -0.4010    -0.1080 c3         1 OK4       0.039700
     16 C09          0.0900    -1.3710    -0.6990 c3         1 OK4      -0.093400
     17 N13         -4.6380    -1.0880    -0.7090 na         1 OK4      -0.301500
     18 N16         -4.2920    -2.6410     0.8310 nd         1 OK4      -0.679000
     19 O18         -6.9110     0.4770    -1.3680 oh         1 OK4      -0.644000
     20 N19          0.8280     1.0100    -0.4250 ns         1 OK4      -0.480900
     21 N05          3.1090    -1.9210    -0.1210 ns         1 OK4      -0.476900
     22 C04          4.4530    -2.4610    -0.4380 c3         1 OK4       0.033700
     23 C28          4.3740    -4.0050    -0.6550 c          1 OK4       0.595100
     24 O29          3.3610    -4.6650    -0.4760 o          1 OK4      -0.607100
     25 C02          5.5220    -2.0480     0.6260 c3         1 OK4      -0.064700
     26 C01          5.7710    -0.5220     0.6570 c3         1 OK4      -0.091600
     27 C03          5.1970    -2.5840     2.0430 c3         1 OK4      -0.091600
     28 N30          5.5080    -4.6230    -1.0580 nt         1 OK4      -0.605000
     29 H29         -3.2430     5.0370     1.7680 hc         1 OK4       0.060700
     30 H30         -1.9500     6.0350     2.2620 hc         1 OK4       0.060700
     31 H31         -3.1130     6.6910     1.0350 hc         1 OK4       0.060700
     32 H28         -1.1250     3.7630     1.6460 hn         1 OK4       0.335500
     33 H24         -0.5090     3.1960    -1.1530 h1         1 OK4       0.083700
     34 H25          1.1350     5.0620    -0.7570 hc         1 OK4       0.052033
     35 H26          1.7930     4.1850     0.6410 hc         1 OK4       0.052033
     36 H27          1.9710     3.5200    -0.9970 hc         1 OK4       0.052033
     37 H1          -2.3620    -2.1530    -1.7990 hc         1 OK4       0.052700
     38 H2          -2.0120    -3.2090    -0.4400 hc         1 OK4       0.052700
     39 H5          -7.9070    -1.0330    -0.3350 h1         1 OK4       0.022200
     40 H6          -7.2430     0.2630     0.6780 h1         1 OK4       0.022200
     41 H7          -6.2500    -2.4930     1.7320 h4         1 OK4       0.048100
     42 H17          1.1730    -0.5240     0.9830 h1         1 OK4       0.077700
     43 H18          0.3940    -2.4030    -0.4860 hc         1 OK4       0.062700
     44 H19          0.0820    -1.2680    -1.7920 hc         1 OK4       0.062700
     45 H20         -4.4610    -0.4730    -1.4930 hn         1 OK4       0.346000
     46 H22         -7.7530     0.9740    -1.4590 ho         1 OK4       0.448000
     47 H23          1.1610     1.3850    -1.3070 hn         1 OK4       0.325500
     48 H16          2.5130    -2.4660     0.4920 hn         1 OK4       0.323500
     49 H15          4.7700    -2.0520    -1.4070 h1         1 OK4       0.079700
     50 H11          6.4750    -2.5010     0.3270 hc         1 OK4       0.050700
     51 H10          6.0150    -0.1470    -0.3450 hc         1 OK4       0.040533
     52 H8           4.8890     0.0180     1.0220 hc         1 OK4       0.040533
     53 H9           6.6120    -0.2820     1.3190 hc         1 OK4       0.040533
     54 H12          6.0020    -2.3320     2.7430 hc         1 OK4       0.040533
     55 H13          4.2670    -2.1480     2.4270 hc         1 OK4       0.040533
     56 H14          5.0890    -3.6750     2.0380 hc         1 OK4       0.040533
     57 H32          6.3520    -4.0910    -1.2130 hn         1 OK4       0.313500
     58 H33          5.4980    -5.6210    -1.2080 hn         1 OK4       0.313500
     59 C10         -1.3450    -1.1640    -0.1580 c3         1 OK4      -0.072400
     60 C17         -7.0530    -0.3530    -0.2110 c3         1 OK4       0.247900
     61 H3          -1.6970    -0.1590    -0.4220 hc         1 OK4       0.057200
     62 H4          -1.3310    -1.2200     0.9380 hc         1 OK4       0.057200
@<TRIPOS>BOND
     1     1     2 2   
     2     1     3 1   
     3     1     4 1   
     4     3    29 1   
     5     3    30 1   
     6     3    31 1   
     7     4     5 1   
     8     4    32 1   
     9     5     6 1   
    10     5     8 1   
    11     5    33 1   
    12     6     7 2   
    13     6    20 1   
    14     8    34 1   
    15     8    35 1   
    16     8    36 1   
    17     9    11 1   
    18     9    37 1   
    19     9    38 1   
    20     9    59 1   
    21    10    12 2   
    22    10    17 1   
    23    10    60 1   
    24    11    17 1   
    25    11    18 2   
    26    12    18 1   
    27    12    41 1   
    28    13    14 2   
    29    13    15 1   
    30    13    21 1   
    31    15    16 1   
    32    15    20 1   
    33    15    42 1   
    34    16    43 1   
    35    16    44 1   
    36    16    59 1   
    37    17    45 1   
    38    19    46 1   
    39    19    60 1   
    40    20    47 1   
    41    21    22 1   
    42    21    48 1   
    43    22    23 1   
    44    22    25 1   
    45    22    49 1   
    46    23    24 2   
    47    23    28 1   
    48    25    26 1   
    49    25    27 1   
    50    25    50 1   
    51    26    51 1   
    52    26    52 1   
    53    26    53 1   
    54    27    54 1   
    55    27    55 1   
    56    27    56 1   
    57    28    57 1   
    58    28    58 1   
    59    39    60 1   
    60    40    60 1   
    61    59    61 1   
    62    59    62 1   
@<TRIPOS>SUBSTRUCTURE
     1 OK4         1 TEMP              0 ****  ****    0 ROOT
