@<TRIPOS>MOLECULE
OK5
  105   112     1     0     0
SMALL
No Charge or Current Charge


@<TRIPOS>ATOM
      1 C1          22.2140    55.2820    -2.3320 c3         1 OK5       0.149900
      2 O1          21.0610    55.9050    -2.9230 os         1 OK5      -0.324100
      3 C2          19.8130    55.8950    -2.3240 ca         1 OK5       0.173100
      4 C3          18.7310    56.5480    -2.9980 cp         1 OK5      -0.150500
      5 C4          17.4750    56.5730    -2.3250 ca         1 OK5      -0.043000
      6 C5          17.2950    55.9690    -1.0720 ca         1 OK5      -0.161000
      7 C6          18.3630    55.3240    -0.4410 ca         1 OK5      -0.070000
      8 C7          19.6190    55.2890    -1.0610 ca         1 OK5      -0.214000
      9 C8          18.8560    57.2080    -4.3560 cp         1 OK5       0.176500
     10 N1          17.9420    58.1580    -4.6580 nb         1 OK5      -0.201000
     11 C9          17.9880    58.7300    -5.8790 ca         1 OK5       0.098300
     12 C10         16.9430    59.7950    -6.1820 c3         1 OK5       0.112300
     13 O2          16.3450    59.5240    -7.4610 os         1 OK5      -0.344100
     14 C11         15.2160    60.1810    -7.9090 ca         1 OK5       0.132100
     15 C12         14.5530    59.7360    -9.0880 ca         1 OK5      -0.081300
     16 C13         14.9990    58.5540    -9.9770 c3         1 OK5      -0.019100
     17 C14         15.8790    57.4160    -9.3900 c3         1 OK5       0.037300
     18 O3          15.2330    56.9210    -8.1820 os         1 OK5      -0.428300
     19 C15         15.8720    56.0520    -7.3210 ca         1 OK5       0.441300
     20 C16         15.2690    55.6990    -6.0920 ca         1 OK5      -0.209800
     21 C17         15.9560    54.8330    -5.2580 ca         1 OK5       0.173300
     22 S1          15.1360    54.4750    -3.7230 ss         1 OK5      -0.153900
     23 C18         13.8500    55.6080    -4.1970 cc         1 OK5      -0.050600
     24 C19         14.0210    56.1390    -5.4730 cd         1 OK5       0.070600
     25 C20         13.1630    57.1920    -6.0630 ca         1 OK5      -0.056800
     26 C21         12.8800    58.4170    -5.3980 ca         1 OK5      -0.006300
     27 C22         13.6200    58.8280    -4.1220 c3         1 OK5      -0.049800
     28 C23         11.9280    59.3040    -5.9580 ca         1 OK5       0.069000
     29 Cl1         11.4980    60.8040    -5.1130 cl         1 OK5      -0.218000
     30 C24         11.2920    59.0020    -7.1810 ca         1 OK5       0.141100
     31 O4          10.3630    59.8960    -7.6820 os         1 OK5      -0.356100
     32 C25          9.6530    59.6700    -8.9160 c3         1 OK5       0.162600
     33 C26          8.7110    60.8740    -9.1890 c3         1 OK5       0.159800
     34 N2           7.4150    60.8910    -8.4470 n3         1 OK5      -0.728600
     35 C27          7.5650    60.9390    -6.9550 c6         1 OK5       0.164800
     36 C28          6.1900    60.9640    -6.2110 c6         1 OK5       0.161300
     37 N3           5.3080    62.0780    -6.6740 n3         1 OK5      -0.718600
     38 C29          4.0140    62.1170    -5.9600 c3         1 OK5       0.153100
     39 C30          5.1490    62.0170    -8.1580 c6         1 OK5       0.161300
     40 C31          6.5240    62.0050    -8.9000 c6         1 OK5       0.164800
     41 C32         11.6120    57.8080    -7.8540 ca         1 OK5      -0.191000
     42 C33         12.5340    56.9140    -7.2920 ca         1 OK5      -0.029000
     43 C34         12.6790    55.8920    -3.3650 ca         1 OK5      -0.017800
     44 C35         12.8540    56.1570    -1.9920 ca         1 OK5      -0.073500
     45 C36         11.7450    56.4390    -1.1740 ca         1 OK5      -0.151000
     46 C37         10.4550    56.4450    -1.7240 ca         1 OK5       0.154000
     47 F1           9.3900    56.7150    -0.9390 f          1 OK5      -0.193000
     48 C38         10.2650    56.1630    -3.0850 ca         1 OK5      -0.151000
     49 C39         11.3740    55.8810    -3.9030 ca         1 OK5      -0.073500
     50 N4          17.1520    54.3100    -5.5710 nb         1 OK5      -0.214000
     51 C40         17.6580    54.6950    -6.7600 ca         1 OK5       0.176900
     52 N5          17.0850    55.5390    -7.6430 nb         1 OK5      -0.251000
     53 C41         16.1050    56.3130   -10.4840 c          1 OK5       0.715000
     54 O5          16.9250    56.5440   -11.3630 o          1 OK5      -0.713000
     55 O6          15.4940    55.2520   -10.4120 o          1 OK5      -0.713000
     56 C42         13.4180    60.4480    -9.5340 ca         1 OK5      -0.075000
     57 C43         12.9390    61.5650    -8.8360 ca         1 OK5      -0.145000
     58 C44         13.5880    61.9950    -7.6740 ca         1 OK5      -0.096000
     59 C45         14.7190    61.3090    -7.2120 ca         1 OK5      -0.197000
     60 C46         18.9640    58.3520    -6.8170 ca         1 OK5      -0.155000
     61 C47         19.8730    57.3540    -6.4330 ca         1 OK5       0.104900
     62 N6          19.8150    56.7850    -5.2120 nb         1 OK5      -0.163000
     63 H1          23.0880    55.4090    -2.9820 h1         1 OK5       0.038367
     64 H2          22.4460    55.7330    -1.3590 h1         1 OK5       0.038367
     65 H3          22.0470    54.2060    -2.1930 h1         1 OK5       0.038367
     66 H4          16.6140    57.0520    -2.7850 ha         1 OK5       0.128000
     67 H5          16.3200    55.9990    -0.5910 ha         1 OK5       0.112000
     68 H6          18.2210    54.8560     0.5310 ha         1 OK5       0.103000
     69 H7          20.4320    54.7920    -0.5410 ha         1 OK5       0.111000
     70 H8          17.4190    60.7840    -6.1780 h1         1 OK5       0.051200
     71 H9          16.1790    59.7780    -5.3940 h1         1 OK5       0.051200
     72 H10         14.1040    58.0740   -10.3920 hc         1 OK5       0.070200
     73 H11         15.5300    58.9660   -10.8430 hc         1 OK5       0.070200
     74 H12         16.8680    57.8260    -9.1530 h1         1 OK5       0.062700
     75 H13         12.9640    58.7620    -3.2470 hc         1 OK5       0.052033
     76 H14         14.5080    58.2160    -3.9290 hc         1 OK5       0.052033
     77 H15         13.9780    59.8610    -4.1900 hc         1 OK5       0.052033
     78 H16          9.0640    58.7450    -8.8750 h1         1 OK5       0.053700
     79 H17         10.3650    59.5910    -9.7480 h1         1 OK5       0.053700
     80 H18          8.4950    60.8640   -10.2660 h1         1 OK5       0.043700
     81 H19          9.2700    61.8000    -8.9950 h1         1 OK5       0.043700
     82 H21          8.1200    60.0640    -6.5920 h1         1 OK5       0.043200
     83 H22          8.1390    61.8310    -6.6600 h1         1 OK5       0.043200
     84 H23          6.3770    61.0500    -5.1310 h1         1 OK5       0.036450
     85 H24          5.6910    59.9960    -6.3730 h1         1 OK5       0.036450
     86 H26          4.1720    62.2110    -4.8770 h1         1 OK5       0.029367
     87 H27          3.4150    62.9760    -6.2910 h1         1 OK5       0.029367
     88 H28          3.4360    61.2020    -6.1460 h1         1 OK5       0.029367
     89 H29          4.5660    62.8790    -8.5130 h1         1 OK5       0.036450
     90 H30          4.5900    61.1120    -8.4420 h1         1 OK5       0.036450
     91 H31          6.3350    61.9250    -9.9810 h1         1 OK5       0.043200
     92 H32          7.0170    62.9740    -8.7330 h1         1 OK5       0.043200
     93 H33         11.1460    57.5450    -8.7980 ha         1 OK5       0.126000
     94 H34         12.7440    55.9760    -7.8030 ha         1 OK5       0.148000
     95 H35         13.8530    56.1590    -1.5620 ha         1 OK5       0.126500
     96 H36         11.8850    56.6520    -0.1170 ha         1 OK5       0.127000
     97 H37          9.2620    56.1590    -3.5030 ha         1 OK5       0.127000
     98 H38         11.2150    55.6480    -4.9530 ha         1 OK5       0.126500
     99 H39         18.6300    54.2890    -7.0320 h5         1 OK5       0.045100
    100 H41         12.9020    60.1340   -10.4390 ha         1 OK5       0.121000
    101 H42         12.0600    62.0960    -9.1960 ha         1 OK5       0.114000
    102 H43         13.2150    62.8610    -7.1300 ha         1 OK5       0.099000
    103 H44         15.2040    61.6770    -6.3130 ha         1 OK5       0.108000
    104 H45         19.0110    58.8070    -7.8030 ha         1 OK5       0.195000
    105 H46         20.6530    57.0030    -7.1060 h4         1 OK5       0.041100
@<TRIPOS>BOND
     1     1     2 1   
     2     1    63 1   
     3     1    64 1   
     4     1    65 1   
     5     2     3 1   
     6     3     4 ar  
     7     3     8 ar  
     8     4     5 ar  
     9     4     9 1   
    10     5     6 ar  
    11     5    66 1   
    12     6     7 ar  
    13     6    67 1   
    14     7     8 ar  
    15     7    68 1   
    16     8    69 1   
    17     9    10 ar  
    18     9    62 ar  
    19    10    11 ar  
    20    11    12 1   
    21    11    60 ar  
    22    12    13 1   
    23    12    70 1   
    24    12    71 1   
    25    13    14 1   
    26    14    15 ar  
    27    14    59 ar  
    28    15    16 1   
    29    15    56 ar  
    30    16    17 1   
    31    16    72 1   
    32    16    73 1   
    33    17    18 1   
    34    17    53 1   
    35    17    74 1   
    36    18    19 1   
    37    19    20 ar  
    38    19    52 ar  
    39    20    21 ar  
    40    20    24 1   
    41    21    22 1   
    42    21    50 ar  
    43    22    23 1   
    44    23    24 2   
    45    23    43 1   
    46    24    25 1   
    47    25    26 ar  
    48    25    42 ar  
    49    26    27 1   
    50    26    28 ar  
    51    27    75 1   
    52    27    76 1   
    53    27    77 1   
    54    28    29 1   
    55    28    30 ar  
    56    30    31 1   
    57    30    41 ar  
    58    31    32 1   
    59    32    33 1   
    60    32    78 1   
    61    32    79 1   
    62    33    34 1   
    63    33    80 1   
    64    33    81 1   
    65    34    35 1   
    66    34    40 1   
    67    35    36 1   
    68    35    82 1   
    69    35    83 1   
    70    36    37 1   
    71    36    84 1   
    72    36    85 1   
    73    37    38 1   
    74    37    39 1   
    75    38    86 1   
    76    38    87 1   
    77    38    88 1   
    78    39    40 1   
    79    39    89 1   
    80    39    90 1   
    81    40    91 1   
    82    40    92 1   
    83    41    42 ar  
    84    41    93 1   
    85    42    94 1   
    86    43    44 ar  
    87    43    49 ar  
    88    44    45 ar  
    89    44    95 1   
    90    45    46 ar  
    91    45    96 1   
    92    46    47 1   
    93    46    48 ar  
    94    48    49 ar  
    95    48    97 1   
    96    49    98 1   
    97    50    51 ar  
    98    51    52 ar  
    99    51    99 1   
   100    53    54 1   
   101    53    55 1   
   102    56    57 ar  
   103    56   100 1   
   104    57    58 ar  
   105    57   101 1   
   106    58    59 ar  
   107    58   102 1   
   108    59   103 1   
   109    60    61 ar  
   110    60   104 1   
   111    61    62 ar  
   112    61   105 1   
@<TRIPOS>SUBSTRUCTURE
     1 OK5         1 TEMP              0 ****  ****    0 ROOT
