@<TRIPOS>MOLECULE
OK5
  105   112     1     0     0
SMALL
abcg2


@<TRIPOS>ATOM
      1 C1          25.3290    55.5260    -5.9610 c3         1 OK5       0.149900
      2 O1          23.9920    55.8170    -5.5580 os         1 OK5      -0.324100
      3 C2          23.7320    55.9930    -4.2390 ca         1 OK5       0.173100
      4 C3          22.4050    56.3050    -3.8800 cp         1 OK5      -0.150500
      5 C4          22.1150    56.5700    -2.5430 ca         1 OK5      -0.043000
      6 C5          23.0920    56.4960    -1.5580 ca         1 OK5      -0.161000
      7 C6          24.3920    56.1670    -1.9200 ca         1 OK5      -0.070000
      8 C7          24.7160    55.9230    -3.2510 ca         1 OK5      -0.214000
      9 C8          21.3050    56.3650    -4.8740 cp         1 OK5       0.176500
     10 N1          20.4970    57.4270    -4.8110 nb         1 OK5      -0.201000
     11 C9          19.4720    57.4860    -5.6660 ca         1 OK5       0.098300
     12 C10         18.5950    58.6960    -5.5140 c3         1 OK5       0.112300
     13 O2          17.5800    58.6680    -6.4990 os         1 OK5      -0.344100
     14 C11         16.5170    59.5190    -6.3760 ca         1 OK5       0.132100
     15 C12         15.4230    59.2490    -7.2160 ca         1 OK5      -0.081300
     16 C13         15.4420    58.0710    -8.1510 c3         1 OK5      -0.019100
     17 C14         15.4160    56.7190    -7.4370 c3         1 OK5       0.037300
     18 O3          14.1910    56.6950    -6.6700 os         1 OK5      -0.428300
     19 C15         14.0660    55.8090    -5.6940 ca         1 OK5       0.441300
     20 C16         12.8900    55.8370    -4.9060 ca         1 OK5      -0.209800
     21 C17         12.8680    54.8960    -3.8650 ca         1 OK5       0.173300
     22 S1          11.4230    55.0400    -2.9170 ss         1 OK5      -0.153900
     23 C18         10.8520    56.3630    -3.9160 cc         1 OK5      -0.050600
     24 C19         11.7260    56.6810    -4.9250 cd         1 OK5       0.070600
     25 C20         11.4480    57.7660    -5.8950 ca         1 OK5      -0.056800
     26 C21         11.3020    59.0980    -5.4720 ca         1 OK5      -0.006300
     27 C22         11.6400    59.5340    -4.0760 c3         1 OK5      -0.049800
     28 C23         10.8190    60.0230    -6.3980 ca         1 OK5       0.069000
     29 CL1         10.5400    61.6770    -5.8980 cl         1 OK5      -0.218000
     30 C24         10.5210    59.6820    -7.7220 ca         1 OK5       0.141100
     31 O4          10.0200    60.6520    -8.5180 os         1 OK5      -0.356100
     32 C25          9.2570    60.2840    -9.6830 c3         1 OK5       0.162600
     33 C26          8.1300    61.2790    -9.8730 c3         1 OK5       0.159800
     34 N2           6.9270    60.9680    -9.1040 n3         1 OK5      -0.728600
     35 C27          7.1270    61.0030    -7.6550 c6         1 OK5       0.164800
     36 C28          5.8420    60.6520    -6.9260 c6         1 OK5       0.161300
     37 N3           4.7590    61.5510    -7.3040 n3         1 OK5      -0.718600
     38 C29          3.5350    61.2460    -6.5810 c3         1 OK5       0.153100
     39 C30          4.5570    61.5040    -8.7480 c6         1 OK5       0.161300
     40 C31          5.8370    61.8660    -9.4800 c6         1 OK5       0.164800
     41 C32         10.7650    58.3740    -8.1400 ca         1 OK5      -0.191000
     42 C33         11.2120    57.4350    -7.2270 ca         1 OK5      -0.029000
     43 C34          9.5710    57.0070    -3.5950 ca         1 OK5      -0.017800
     44 C35          9.2500    57.3310    -2.2720 ca         1 OK5      -0.073500
     45 C36          8.0710    57.9970    -1.9630 ca         1 OK5      -0.151000
     46 C37          7.2160    58.3340    -2.9960 ca         1 OK5       0.154000
     47 F1           6.0710    59.0010    -2.7050 f          1 OK5      -0.193000
     48 C38          7.4840    58.0150    -4.3150 ca         1 OK5      -0.151000
     49 C39          8.6640    57.3450    -4.6070 ca         1 OK5      -0.073500
     50 N4          13.8340    54.0050    -3.6070 nb         1 OK5      -0.214000
     51 C40         14.8690    54.0760    -4.4300 ca         1 OK5       0.176900
     52 N5          15.0310    54.9320    -5.4490 nb         1 OK5      -0.251000
     53 C41         15.5140    55.5600    -8.4560 c          1 OK5       0.715000
     54 O5          16.6700    55.3830    -8.9150 o          1 OK5      -0.713000
     55 O6          14.4700    54.9400    -8.7550 o          1 OK5      -0.713000
     56 C42         14.3200    60.0910    -7.1420 ca         1 OK5      -0.075000
     57 C43         14.2830    61.1720    -6.2660 ca         1 OK5      -0.145000
     58 C44         15.3710    61.4190    -5.4420 ca         1 OK5      -0.096000
     59 C45         16.4940    60.5950    -5.4940 ca         1 OK5      -0.197000
     60 C46         19.2510    56.4850    -6.6010 ca         1 OK5      -0.155000
     61 C47         20.1380    55.4190    -6.5800 ca         1 OK5       0.104900
     62 N6          21.1590    55.3430    -5.7280 nb         1 OK5      -0.163000
     63 H1          25.2950    55.4270    -7.0430 h1         1 OK5       0.038367
     64 H2          26.0080    56.3370    -5.6880 h1         1 OK5       0.038367
     65 H3          25.6790    54.5910    -5.5180 h1         1 OK5       0.038367
     66 H4          21.0960    56.8220    -2.2790 ha         1 OK5       0.128000
     67 H5          22.8390    56.6900    -0.5240 ha         1 OK5       0.112000
     68 H6          25.1690    56.1040    -1.1690 ha         1 OK5       0.103000
     69 H7          25.7370    55.6890    -3.5130 ha         1 OK5       0.111000
     70 H8          19.2080    59.5990    -5.6030 h1         1 OK5       0.051200
     71 H9          18.1580    58.6870    -4.5100 h1         1 OK5       0.051200
     72 H10         14.5830    58.1300    -8.8220 hc         1 OK5       0.070200
     73 H11         16.3440    58.0820    -8.7650 hc         1 OK5       0.070200
     74 H12         16.2460    56.6410    -6.7440 h1         1 OK5       0.062700
     75 H13         10.7420    59.8200    -3.5240 hc         1 OK5       0.052033
     76 H14         12.1370    58.7390    -3.5290 hc         1 OK5       0.052033
     77 H15         12.2980    60.4030    -4.1030 hc         1 OK5       0.052033
     78 H16          8.8460    59.2810    -9.5610 h1         1 OK5       0.053700
     79 H17          9.9230    60.2910   -10.5470 h1         1 OK5       0.053700
     80 H18          7.8510    61.2660   -10.9290 h1         1 OK5       0.043700
     81 H19          8.5090    62.2910    -9.6510 h1         1 OK5       0.043700
     82 H21          7.8910    60.2820    -7.3750 h1         1 OK5       0.043200
     83 H22          7.4750    61.9980    -7.3300 h1         1 OK5       0.043200
     84 H23          6.0070    60.7290    -5.8490 h1         1 OK5       0.036450
     85 H24          5.5780    59.6020    -7.1460 h1         1 OK5       0.036450
     86 H26          3.7090    61.3290    -5.5070 h1         1 OK5       0.029367
     87 H27          2.7530    61.9530    -6.8630 h1         1 OK5       0.029367
     88 H28          3.1680    60.2260    -6.7910 h1         1 OK5       0.029367
     89 H29          3.7700    62.2120    -9.0180 h1         1 OK5       0.036450
     90 H30          4.2260    60.4990    -9.0670 h1         1 OK5       0.036450
     91 H31          5.6740    61.7870   -10.5570 h1         1 OK5       0.043200
     92 H32          6.0950    62.9160    -9.2570 h1         1 OK5       0.043200
     93 H33         10.5890    58.0880    -9.1660 ha         1 OK5       0.126000
     94 H34         11.3580    56.4130    -7.5500 ha         1 OK5       0.148000
     95 H35          9.9410    57.0870    -1.4760 ha         1 OK5       0.126500
     96 H36          7.8240    58.2620    -0.9440 ha         1 OK5       0.127000
     97 H37          6.7830    58.2830    -5.0940 ha         1 OK5       0.127000
     98 H38          8.8810    57.0870    -5.6330 ha         1 OK5       0.126500
     99 H39         15.6770    53.3720    -4.2640 h5         1 OK5       0.045100
    100 H41         13.4680    59.8830    -7.7770 ha         1 OK5       0.121000
    101 H42         13.4080    61.8060    -6.2240 ha         1 OK5       0.114000
    102 H43         15.3590    62.2540    -4.7530 ha         1 OK5       0.099000
    103 H44         17.3390    60.8020    -4.8540 ha         1 OK5       0.108000
    104 H45         18.4310    56.5150    -7.3020 ha         1 OK5       0.195000
    105 H46         20.0180    54.5900    -7.2700 h4         1 OK5       0.041100
@<TRIPOS>BOND
     1     1     2 1   
     2     1    63 1   
     3     1    64 1   
     4     1    65 1   
     5     2     3 1   
     6     3     4 ar  
     7     3     8 ar  
     8     4     5 ar  
     9     4     9 1   
    10     5     6 ar  
    11     5    66 1   
    12     6     7 ar  
    13     6    67 1   
    14     7     8 ar  
    15     7    68 1   
    16     8    69 1   
    17     9    10 ar  
    18     9    62 ar  
    19    10    11 ar  
    20    11    12 1   
    21    11    60 ar  
    22    12    13 1   
    23    12    70 1   
    24    12    71 1   
    25    13    14 1   
    26    14    15 ar  
    27    14    59 ar  
    28    15    16 1   
    29    15    56 ar  
    30    16    17 1   
    31    16    72 1   
    32    16    73 1   
    33    17    18 1   
    34    17    53 1   
    35    17    74 1   
    36    18    19 1   
    37    19    20 ar  
    38    19    52 ar  
    39    20    21 ar  
    40    20    24 1   
    41    21    22 1   
    42    21    50 ar  
    43    22    23 1   
    44    23    24 2   
    45    23    43 1   
    46    24    25 1   
    47    25    26 ar  
    48    25    42 ar  
    49    26    27 1   
    50    26    28 ar  
    51    27    75 1   
    52    27    76 1   
    53    27    77 1   
    54    28    29 1   
    55    28    30 ar  
    56    30    31 1   
    57    30    41 ar  
    58    31    32 1   
    59    32    33 1   
    60    32    78 1   
    61    32    79 1   
    62    33    34 1   
    63    33    80 1   
    64    33    81 1   
    65    34    35 1   
    66    34    40 1   
    67    35    36 1   
    68    35    82 1   
    69    35    83 1   
    70    36    37 1   
    71    36    84 1   
    72    36    85 1   
    73    37    38 1   
    74    37    39 1   
    75    38    86 1   
    76    38    87 1   
    77    38    88 1   
    78    39    40 1   
    79    39    89 1   
    80    39    90 1   
    81    40    91 1   
    82    40    92 1   
    83    41    42 ar  
    84    41    93 1   
    85    42    94 1   
    86    43    44 ar  
    87    43    49 ar  
    88    44    45 ar  
    89    44    95 1   
    90    45    46 ar  
    91    45    96 1   
    92    46    47 1   
    93    46    48 ar  
    94    48    49 ar  
    95    48    97 1   
    96    49    98 1   
    97    50    51 ar  
    98    51    52 ar  
    99    51    99 1   
   100    53    54 1   
   101    53    55 1   
   102    56    57 ar  
   103    56   100 1   
   104    57    58 ar  
   105    57   101 1   
   106    58    59 ar  
   107    58   102 1   
   108    59   103 1   
   109    60    61 ar  
   110    60   104 1   
   111    61    62 ar  
   112    61   105 1   
@<TRIPOS>SUBSTRUCTURE
     1 OK5         1 TEMP              0 ****  ****    0 ROOT
