@<TRIPOS>MOLECULE
OK7
   16    16     1     0     0
SMALL
bcc


@<TRIPOS>ATOM
      1 CAH          3.4210     0.4590    -0.0100 c3         1 OK7      -0.173100
      2 CAG          2.0260    -0.0900    -0.0920 c          1 OK7       0.665100
      3 OAI          1.7850    -1.2760    -0.2520 o          1 OK7      -0.582100
      4 NAF          1.0300     0.8200     0.0320 ns         1 OK7      -0.444100
      5 CAE         -0.3220     0.5250     0.0040 cc         1 OK7       0.063500
      6 SAA         -0.9280    -1.0770    -0.2220 ss         1 OK7      -0.001800
      7 CAB         -2.5520    -0.5140    -0.1240 cc         1 OK7      -0.161100
      8 CAC         -2.6150     0.8280     0.0740 cd         1 OK7      -0.124000
      9 CAD         -1.3320     1.4340     0.1470 cd         1 OK7      -0.223000
     10 H1           3.9260     0.0250     0.8530 hc         1 OK7       0.065367
     11 H2           3.9790     0.1600    -0.8970 hc         1 OK7       0.065367
     12 H3           3.4600     1.5420     0.0760 hc         1 OK7       0.065367
     13 H4           1.2690     1.7900     0.1660 hn         1 OK7       0.323500
     14 H5          -3.3690    -1.2130    -0.2170 h4         1 OK7       0.166000
     15 H6          -3.5400     1.3790     0.1670 ha         1 OK7       0.148000
     16 H7          -1.1630     2.4910     0.2970 ha         1 OK7       0.146000
@<TRIPOS>BOND
     1     1     2 1   
     2     1    10 1   
     3     1    11 1   
     4     1    12 1   
     5     2     3 2   
     6     2     4 1   
     7     4     5 1   
     8     4    13 1   
     9     5     6 1   
    10     5     9 2   
    11     6     7 1   
    12     7     8 2   
    13     7    14 1   
    14     8     9 1   
    15     8    15 1   
    16     9    16 1   
@<TRIPOS>SUBSTRUCTURE
     1 OK7         1 TEMP              0 ****  ****    0 ROOT
