@<TRIPOS>MOLECULE
OK7
   16    16     1     0     0
SMALL
No Charge or Current Charge


@<TRIPOS>ATOM
      1 CAH          3.4640     0.5190    -0.0630 c3         1 OK7      -0.173100
      2 CAG          2.0990    -0.1360    -0.2450 c          1 OK7       0.598100
      3 OAI          1.9830    -1.2920    -0.6290 o          1 OK7      -0.582100
      4 NAF          1.0260     0.6830     0.0570 ns         1 OK7      -0.377100
      5 CAE         -0.3350     0.3900    -0.0040 cc         1 OK7      -0.081400
      6 SAA         -1.0980    -1.1330    -0.4930 ss         1 OK7       0.288000
      7 CAB         -2.6990    -0.4490    -0.2210 cc         1 OK7      -0.288000
      8 CAC         -2.6150     0.8510     0.2110 cd         1 OK7      -0.106000
      9 CAD         -1.2810     1.3230     0.3340 cd         1 OK7      -0.205000
     10 H1           3.5450     0.8980     0.9620 hc         1 OK7       0.065367
     11 H2           4.2910    -0.1560    -0.3110 hc         1 OK7       0.065367
     12 H3           3.5010     1.4390    -0.6570 hc         1 OK7       0.065367
     13 H4           1.2930     1.6120     0.3610 hn         1 OK7       0.323500
     14 H5          -3.5760    -1.0570    -0.4010 h4         1 OK7       0.148000
     15 H6          -3.4870     1.4600     0.4390 ha         1 OK7       0.130000
     16 H7          -1.0380     2.3290     0.6640 ha         1 OK7       0.128000
@<TRIPOS>BOND
     1     1     2 1   
     2     1    10 1   
     3     1    11 1   
     4     1    12 1   
     5     2     3 2   
     6     2     4 1   
     7     4     5 1   
     8     4    13 1   
     9     5     6 1   
    10     5     9 2   
    11     6     7 1   
    12     7     8 2   
    13     7    14 1   
    14     8     9 1   
    15     8    15 1   
    16     9    16 1   
@<TRIPOS>SUBSTRUCTURE
     1 OK7         1 TEMP              0 ****  ****    0 ROOT
