@<TRIPOS>MOLECULE
OK9
   39    41     1     0     0
SMALL
abcg2


@<TRIPOS>ATOM
      1 N1           9.5570     3.0070    23.1170 nh         1 OK9      -0.786400
      2 C4           4.6350     1.0870    20.4270 cc         1 OK9      -0.103000
      3 C5           3.7520     2.1500    20.1190 cc         1 OK9      -0.144000
      4 C6           4.0450     2.7400    18.9180 cd         1 OK9      -0.254000
      5 C8           9.3710    -0.5510    21.6950 cc         1 OK9      -0.252800
      6 C10         10.8240     0.9020    22.8320 cd         1 OK9      -0.260000
      7 C13          8.4000     5.1600    22.9830 c6         1 OK9       0.142100
      8 C15         10.5230     3.6000    24.0450 c6         1 OK9       0.179300
      9 O1           7.5720     0.0090    18.5260 o          1 OK9      -0.589100
     10 C2           6.6970    -0.0780    19.3870 c          1 OK9       0.640700
     11 C3           5.5830     0.8820    19.4520 cd         1 OK9      -0.291600
     12 S            5.3940     2.0120    18.1550 ss         1 OK9       0.313000
     13 N            6.7140    -1.0260    20.3650 ns         1 OK9      -0.416100
     14 C1           7.7340    -2.0090    20.4750 cf         1 OK9      -0.144600
     15 C            7.4750    -3.3230    19.9590 c          1 OK9       0.571100
     16 O            6.4320    -3.6800    19.4130 o          1 OK9      -0.533100
     17 S1           8.3930     0.8970    21.9090 ss         1 OK9       0.186000
     18 C11          9.7000     1.7290    22.7130 cc         1 OK9       0.244000
     19 C9          10.6280    -0.3510    22.2600 cd         1 OK9      -0.029000
     20 C14         10.5560     5.1090    23.8750 c6         1 OK9       0.142100
     21 O2           9.2560     5.6760    23.9960 os         1 OK9      -0.448000
     22 C12          8.2460     3.6530    23.1040 c6         1 OK9       0.179300
     23 H1           4.5770     0.5140    21.3420 ha         1 OK9       0.131000
     24 H2           2.9410     2.4670    20.7590 ha         1 OK9       0.135000
     25 H3           3.5360     3.5630    18.4420 h4         1 OK9       0.151000
     26 H4           9.6610    -2.5390    21.0820 ha         1 OK9       0.181000
     27 H5          11.7430     1.2040    23.3080 ha         1 OK9       0.135000
     28 H6           8.8040     5.4130    21.9950 h1         1 OK9       0.060200
     29 H7           7.4290     5.6390    23.1050 h1         1 OK9       0.060200
     30 H8          10.2450     3.3420    25.0740 h1         1 OK9       0.059200
     31 H9          11.5140     3.2030    23.8440 h1         1 OK9       0.059200
     32 H10          5.8770    -1.1590    20.9120 hn         1 OK9       0.324500
     33 H11          8.3050    -4.0390    20.0990 h4         1 OK9      -0.012800
     34 H12         11.3830    -1.1260    22.2440 ha         1 OK9       0.130000
     35 H13         10.9780     5.3640    22.8950 h1         1 OK9       0.060200
     36 H14         11.1740     5.5520    24.6550 h1         1 OK9       0.060200
     37 H15          7.7000     3.4010    24.0210 h1         1 OK9       0.059200
     38 H16          7.6700     3.2940    22.2510 h1         1 OK9       0.059200
     39 C7           8.9340    -1.7310    21.0750 ce         1 OK9      -0.002200
@<TRIPOS>BOND
     1     1     8 1   
     2     1    18 1   
     3     1    22 1   
     4     2     3 1   
     5     2    11 2   
     6     2    23 1   
     7     3     4 2   
     8     3    24 1   
     9     4    12 1   
    10     4    25 1   
    11     5    17 1   
    12     5    19 2   
    13     5    39 1   
    14     6    18 2   
    15     6    19 1   
    16     6    27 1   
    17     7    21 1   
    18     7    22 1   
    19     7    28 1   
    20     7    29 1   
    21     8    20 1   
    22     8    30 1   
    23     8    31 1   
    24     9    10 2   
    25    10    11 1   
    26    10    13 1   
    27    11    12 1   
    28    13    14 1   
    29    13    32 1   
    30    14    15 1   
    31    14    39 2   
    32    15    16 2   
    33    15    33 1   
    34    17    18 1   
    35    19    34 1   
    36    20    21 1   
    37    20    35 1   
    38    20    36 1   
    39    22    37 1   
    40    22    38 1   
    41    26    39 1   
@<TRIPOS>SUBSTRUCTURE
     1 OK9         1 TEMP              0 ****  ****    0 ROOT
