@<TRIPOS>MOLECULE
OK9
   39    41     1     0     0
SMALL
No Charge or Current Charge


@<TRIPOS>ATOM
      1 N1           9.7300     3.0660    23.2840 nh         1 OK9      -0.786400
      2 C4           4.3470     0.7270    19.7590 cc         1 OK9      -0.103000
      3 C5           3.4150     1.6860    19.2960 cc         1 OK9      -0.144000
      4 C6           3.9450     2.5880    18.4100 cd         1 OK9      -0.254000
      5 C8           9.2970    -0.5510    21.8290 cc         1 OK9      -0.252800
      6 C10         10.8890     1.0430    22.4940 cd         1 OK9      -0.260000
      7 C13          8.4440     5.2250    23.7380 c6         1 OK9       0.142100
      8 C15         10.9780     3.7840    23.7250 c6         1 OK9       0.179300
      9 O1           7.8970     0.2830    19.0110 o          1 OK9      -0.589100
     10 C2           6.8030     0.0660    19.5110 c          1 OK9       0.640700
     11 C3           5.6070     0.8890    19.2250 cd         1 OK9      -0.291600
     12 S            5.6650     2.2680    18.1140 ss         1 OK9       0.313000
     13 N            6.5640    -0.9740    20.3880 ns         1 OK9      -0.416100
     14 C1           7.5110    -2.0200    20.7230 cf         1 OK9      -0.144600
     15 C            7.0970    -3.4310    20.4080 c          1 OK9       0.571100
     16 O            6.0230    -3.7170    19.8870 o          1 OK9      -0.533100
     17 S1           8.3160     0.8100    22.3920 ss         1 OK9       0.186000
     18 C11          9.7570     1.7700    22.7690 cc         1 OK9       0.244000
     19 C9          10.6300    -0.2550    21.9720 cd         1 OK9      -0.029000
     20 C14         10.8410     5.3350    23.6680 c6         1 OK9       0.142100
     21 O2           9.6380     5.7760    24.3380 os         1 OK9      -0.448000
     22 C12          8.4540     3.6690    23.8080 c6         1 OK9       0.179300
     23 H1           4.0580    -0.0410    20.4720 ha         1 OK9       0.131000
     24 H2           2.3790     1.6940    19.6240 ha         1 OK9       0.135000
     25 H3           3.4520     3.4140    17.9120 h4         1 OK9       0.151000
     26 H4           9.3570    -2.6720    21.5130 ha         1 OK9       0.181000
     27 H5          11.8960     1.4070    22.6540 ha         1 OK9       0.135000
     28 H6           8.3820     5.5500    22.6890 h1         1 OK9       0.060200
     29 H7           7.5620     5.6150    24.2650 h1         1 OK9       0.060200
     30 H8          11.2320     3.4890    24.7540 h1         1 OK9       0.059200
     31 H9          11.8340     3.5100    23.0930 h1         1 OK9       0.059200
     32 H10          5.5860    -1.2020    20.5130 hn         1 OK9       0.324500
     33 H11          7.8260    -4.2260    20.6800 h4         1 OK9      -0.012800
     34 H12         11.4210    -0.9510    21.7060 ha         1 OK9       0.130000
     35 H13         10.8110     5.6650    22.6190 h1         1 OK9       0.060200
     36 H14         11.7130     5.8030    24.1450 h1         1 OK9       0.060200
     37 H15          8.3020     3.3640    24.8530 h1         1 OK9       0.059200
     38 H16          7.5840     3.3070    23.2420 h1         1 OK9       0.059200
     39 C7           8.7140    -1.8050    21.3440 ce         1 OK9      -0.002200
@<TRIPOS>BOND
     1     1     8 1   
     2     1    18 1   
     3     1    22 1   
     4     2     3 1   
     5     2    11 2   
     6     2    23 1   
     7     3     4 2   
     8     3    24 1   
     9     4    12 1   
    10     4    25 1   
    11     5    17 1   
    12     5    19 2   
    13     5    39 1   
    14     6    18 2   
    15     6    19 1   
    16     6    27 1   
    17     7    21 1   
    18     7    22 1   
    19     7    28 1   
    20     7    29 1   
    21     8    20 1   
    22     8    30 1   
    23     8    31 1   
    24     9    10 2   
    25    10    11 1   
    26    10    13 1   
    27    11    12 1   
    28    13    14 1   
    29    13    32 1   
    30    14    15 1   
    31    14    39 2   
    32    15    16 2   
    33    15    33 1   
    34    17    18 1   
    35    19    34 1   
    36    20    21 1   
    37    20    35 1   
    38    20    36 1   
    39    22    37 1   
    40    22    38 1   
    41    26    39 1   
@<TRIPOS>SUBSTRUCTURE
     1 OK9         1 TEMP              0 ****  ****    0 ROOT
