@<TRIPOS>MOLECULE
OKA
  124   130     1     0     0
SMALL
abcg2


@<TRIPOS>ATOM
      1 C1          84.1230    53.2090    22.1410 c          1 OKA       0.725000
      2 C2          83.9740    52.2370    23.3510 c3         1 OKA       0.047000
      3 C3          85.3010    52.0660    24.1140 c3         1 OKA      -0.065400
      4 C4          86.1110    53.3030    24.4650 c6         1 OKA       0.175300
      5 C5          87.4260    52.9340    25.1440 c6         1 OKA      -0.105400
      6 C6          88.1740    54.1820    25.6100 c6         1 OKA      -0.070400
      7 C7          87.2630    55.0450    26.4630 c6         1 OKA       0.166300
      8 C8          85.9540    55.3680    25.7130 c6         1 OKA       0.401200
      9 C9          84.9810    56.0950    26.5990 c2         1 OKA      -0.240200
     10 C10         84.3650    57.2140    26.2230 c2         1 OKA      -0.089400
     11 C11         84.5680    57.7700    24.8380 c6         1 OKA      -0.066200
     12 C12         85.2010    56.7440    23.9100 c6         1 OKA       0.164300
     13 C13         85.7520    57.3310    22.6040 c3         1 OKA      -0.016500
     14 C14         86.4700    56.2630    21.8320 c2         1 OKA      -0.152200
     15 C15         87.7660    56.2810    21.5430 c2         1 OKA      -0.255200
     16 C16         88.4830    55.1750    20.8470 c5         1 OKA       0.202500
     17 C17         89.3950    55.5920    19.6810 c5         1 OKA      -0.098400
     18 C18         90.6440    54.6990    19.8220 c5         1 OKA      -0.086400
     19 C19         90.3900    53.8740    21.0880 c5         1 OKA       0.375000
     20 C20         91.5860    53.6720    22.0100 c6         1 OKA      -0.078400
     21 C21         91.2490    52.7370    23.1730 c6         1 OKA      -0.067400
     22 C22         90.6630    51.4500    22.6280 c6         1 OKA       0.132300
     23 C23         89.4700    51.7590    21.7190 c6         1 OKA       0.147300
     24 C24         88.8950    50.4610    21.1700 c6         1 OKA       0.217500
     25 C25         88.5610    49.5880    22.3610 c2         1 OKA      -0.203400
     26 C26         89.7100    49.3520    23.3120 c6         1 OKA       0.213500
     27 C27         90.7850    48.3960    22.7750 c3         1 OKA       0.147300
     28 C28         90.1780    47.0710    22.3240 c3         1 OKA      -0.108400
     29 C29         91.1960    46.0390    21.8180 c3         1 OKA      -0.057700
     30 C30         90.4850    44.7310    21.4500 c6         1 OKA       0.180300
     31 C31         89.6260    44.0940    22.5520 c6         1 OKA      -0.085700
     32 C32         89.0500    42.7780    22.0070 c6         1 OKA      -0.069400
     33 C33         90.1450    41.8580    21.4700 c6         1 OKA      -0.083400
     34 C34         91.0530    42.5830    20.4830 c6         1 OKA       0.392000
     35 C35         92.3040    41.7780    20.1400 c6         1 OKA      -0.083400
     36 C36         93.0980    42.4090    18.9960 c6         1 OKA      -0.069400
     37 C37         92.1800    42.6670    17.8010 c6         1 OKA      -0.109400
     38 C38         90.9660    43.4670    18.2430 c6         1 OKA       0.159600
     39 C39         90.3840    43.8920    23.8660 c3         1 OKA      -0.084100
     40 C40         91.9900    46.5740    20.6230 c3         1 OKA      -0.088100
     41 C41         87.3420    49.1260    22.6060 c2         1 OKA      -0.269000
     42 C42         84.6280    57.9520    21.7630 c3         1 OKA      -0.088100
     43 C43         83.4440    57.9760    27.1250 c3         1 OKA      -0.050900
     44 C44         83.5290    50.8670    22.8220 c3         1 OKA      -0.095100
     45 O1          83.3290    54.1720    22.0440 o          1 OKA      -0.722500
     46 O2          85.0380    52.9140    21.3300 o          1 OKA      -0.722500
     47 O3          82.9420    52.7360    24.2210 oh         1 OKA      -0.629000
     48 O4          85.3280    54.1400    25.3410 os         1 OKA      -0.465000
     49 O5          87.9710    56.2200    26.8480 oh         1 OKA      -0.720000
     50 O6          86.3070    56.1290    24.5850 os         1 OKA      -0.464000
     51 O7          89.3930    54.5750    21.8020 os         1 OKA      -0.465000
     52 O8          89.8860    52.6000    20.6480 os         1 OKA      -0.470000
     53 O9          90.2710    50.6150    23.7130 os         1 OKA      -0.434000
     54 O10         87.7800    50.7600    20.3480 oh         1 OKA      -0.663000
     55 O11         91.7100    48.2120    23.8550 oh         1 OKA      -0.716000
     56 O12         91.5100    43.8110    21.0350 os         1 OKA      -0.491000
     57 O13         90.2680    42.8170    19.3140 os         1 OKA      -0.486000
     58 H31         85.0890    51.5070    25.0340 hc         1 OKA       0.027700
     59 H32         85.9530    51.4310    23.5140 hc         1 OKA       0.027700
     60 H41         86.3210    53.8680    23.5550 h1         1 OKA       0.088700
     61 H51         87.2090    52.2900    26.0020 hc         1 OKA       0.042700
     62 H52         88.0440    52.3570    24.4560 hc         1 OKA       0.042700
     63 H61         89.0580    53.9070    26.1900 hc         1 OKA       0.058700
     64 H62         88.5120    54.7640    24.7500 hc         1 OKA       0.058700
     65 H71         86.9660    54.4810    27.3560 h1         1 OKA       0.028700
     66 H91         84.8150    55.6670    27.5820 ha         1 OKA       0.172000
     67 H111        83.6020    58.0900    24.4390 hc         1 OKA       0.047200
     68 H112        85.1940    58.6700    24.8940 hc         1 OKA       0.047200
     69 H121        84.4680    55.9690    23.6650 h1         1 OKA       0.113700
     70 H131        86.4710    58.1120    22.8720 hc         1 OKA       0.034700
     71 H141        85.8670    55.4120    21.5210 ha         1 OKA       0.233000
     72 H151        88.3860    57.1140    21.8650 ha         1 OKA       0.154000
     73 H161        87.7690    54.4130    20.5230 h1         1 OKA       0.095700
     74 H171        88.8900    55.4630    18.7250 hc         1 OKA       0.046700
     75 H172        89.6620    56.6450    19.7790 hc         1 OKA       0.046700
     76 H181        90.7960    54.0370    18.9720 hc         1 OKA       0.050200
     77 H182        91.5450    55.2970    19.9500 hc         1 OKA       0.050200
     78 H201        92.3990    53.2510    21.4140 hc         1 OKA       0.048700
     79 H202        91.9140    54.6460    22.3760 hc         1 OKA       0.048700
     80 H211        92.1450    52.5180    23.7570 hc         1 OKA       0.061700
     81 H212        90.5230    53.2070    23.8390 hc         1 OKA       0.061700
     82 H221        91.4250    50.9470    22.0200 h1         1 OKA       0.025700
     83 H231        88.6930    52.2630    22.3010 h1         1 OKA       0.099700
     84 H241        89.6730    49.9710    20.5690 h1         1 OKA       0.023700
     85 H261        89.3250    48.9170    24.2350 h1         1 OKA       0.083700
     86 H271        91.3040    48.8660    21.9380 h1         1 OKA       0.038700
     87 H281        89.6110    46.6650    23.1640 hc         1 OKA       0.054700
     88 H282        89.4620    47.2720    21.5230 hc         1 OKA       0.054700
     89 H291        91.9000    45.8040    22.6230 hc         1 OKA       0.054700
     90 H301        89.8350    44.9310    20.5900 h1         1 OKA       0.046700
     91 H311        88.7820    44.7620    22.7380 hc         1 OKA       0.056700
     92 H321        88.4870    42.2670    22.7910 hc         1 OKA       0.047700
     93 H322        88.3450    43.0070    21.2040 hc         1 OKA       0.047700
     94 H331        90.7700    41.4940    22.2880 hc         1 OKA       0.052700
     95 H332        89.7140    40.9850    20.9780 hc         1 OKA       0.052700
     96 H351        92.9150    41.6850    21.0400 hc         1 OKA       0.052700
     97 H352        91.9800    40.7730    19.8570 hc         1 OKA       0.052700
     98 H361        93.5330    43.3550    19.3300 hc         1 OKA       0.046200
     99 H362        93.9260    41.7560    18.7120 hc         1 OKA       0.046200
    100 H371        92.7050    43.2140    17.0130 hc         1 OKA       0.045200
    101 H372        91.8470    41.7150    17.3750 hc         1 OKA       0.045200
    102 H381        91.2670    44.4710    18.5580 h1         1 OKA       0.049700
    103 H382        90.2350    43.5650    17.4410 h1         1 OKA       0.049700
    104 H391        89.7590    43.3530    24.5810 hc         1 OKA       0.036033
    105 H392        91.2960    43.3140    23.7160 hc         1 OKA       0.036033
    106 H393        90.6630    44.8430    24.3210 hc         1 OKA       0.036033
    107 H401        92.6570    45.8100    20.2290 hc         1 OKA       0.036700
    108 H402        91.3140    46.8830    19.8210 hc         1 OKA       0.036700
    109 H403        92.5970    47.4380    20.9000 hc         1 OKA       0.036700
    110 H411        86.5130    49.3240    21.9400 ha         1 OKA       0.176000
    111 H412        87.1390    48.5290    23.4870 ha         1 OKA       0.176000
    112 H421        85.0330    58.3540    20.8330 hc         1 OKA       0.038033
    113 H422        83.8790    57.1990    21.5090 hc         1 OKA       0.038033
    114 H423        84.1300    58.7640    22.2940 hc         1 OKA       0.038033
    115 H431        83.7920    59.0080    27.2430 hc         1 OKA       0.035033
    116 H432        82.4410    58.0320    26.6910 hc         1 OKA       0.035033
    117 H433        83.3740    57.5170    28.1120 hc         1 OKA       0.035033
    118 H441        83.4320    50.1620    23.6520 hc         1 OKA       0.020367
    119 H442        82.5590    50.9540    22.3300 hc         1 OKA       0.020367
    120 H443        84.2510    50.4660    22.1110 hc         1 OKA       0.020367
    121 HO3         82.9780    52.2130    25.0310 ho         1 OKA       0.393000
    122 HO5         87.3590    56.8010    27.3200 ho         1 OKA       0.496000
    123 HO10        87.4810    49.9440    19.9270 ho         1 OKA       0.489000
    124 HO11        92.4760    47.7290    23.5220 ho         1 OKA       0.493000
@<TRIPOS>BOND
     1     1     2 1   
     2     1    45 1   
     3     1    46 1   
     4     2     3 1   
     5     2    44 1   
     6     2    47 1   
     7     3     4 1   
     8     3    58 1   
     9     3    59 1   
    10     4     5 1   
    11     4    48 1   
    12     4    60 1   
    13     5     6 1   
    14     5    61 1   
    15     5    62 1   
    16     6     7 1   
    17     6    63 1   
    18     6    64 1   
    19     7     8 1   
    20     7    49 1   
    21     7    65 1   
    22     8     9 1   
    23     8    48 1   
    24     8    50 1   
    25     9    10 2   
    26     9    66 1   
    27    10    11 1   
    28    10    43 1   
    29    11    12 1   
    30    11    67 1   
    31    11    68 1   
    32    12    13 1   
    33    12    50 1   
    34    12    69 1   
    35    13    14 1   
    36    13    42 1   
    37    13    70 1   
    38    14    15 2   
    39    14    71 1   
    40    15    16 1   
    41    15    72 1   
    42    16    17 1   
    43    16    51 1   
    44    16    73 1   
    45    17    18 1   
    46    17    74 1   
    47    17    75 1   
    48    18    19 1   
    49    18    76 1   
    50    18    77 1   
    51    19    20 1   
    52    19    51 1   
    53    19    52 1   
    54    20    21 1   
    55    20    78 1   
    56    20    79 1   
    57    21    22 1   
    58    21    80 1   
    59    21    81 1   
    60    22    23 1   
    61    22    53 1   
    62    22    82 1   
    63    23    24 1   
    64    23    52 1   
    65    23    83 1   
    66    24    25 1   
    67    24    54 1   
    68    24    84 1   
    69    25    26 1   
    70    25    41 2   
    71    26    27 1   
    72    26    53 1   
    73    26    85 1   
    74    27    28 1   
    75    27    55 1   
    76    27    86 1   
    77    28    29 1   
    78    28    87 1   
    79    28    88 1   
    80    29    30 1   
    81    29    40 1   
    82    29    89 1   
    83    30    31 1   
    84    30    56 1   
    85    30    90 1   
    86    31    32 1   
    87    31    39 1   
    88    31    91 1   
    89    32    33 1   
    90    32    92 1   
    91    32    93 1   
    92    33    34 1   
    93    33    94 1   
    94    33    95 1   
    95    34    35 1   
    96    34    56 1   
    97    34    57 1   
    98    35    36 1   
    99    35    96 1   
   100    35    97 1   
   101    36    37 1   
   102    36    98 1   
   103    36    99 1   
   104    37    38 1   
   105    37   100 1   
   106    37   101 1   
   107    38    57 1   
   108    38   102 1   
   109    38   103 1   
   110    39   104 1   
   111    39   105 1   
   112    39   106 1   
   113    40   107 1   
   114    40   108 1   
   115    40   109 1   
   116    41   110 1   
   117    41   111 1   
   118    42   112 1   
   119    42   113 1   
   120    42   114 1   
   121    43   115 1   
   122    43   116 1   
   123    43   117 1   
   124    44   118 1   
   125    44   119 1   
   126    44   120 1   
   127    47   121 1   
   128    49   122 1   
   129    54   123 1   
   130    55   124 1   
@<TRIPOS>SUBSTRUCTURE
     1 OKA         1 TEMP              0 ****  ****    0 ROOT
