@<TRIPOS>MOLECULE
OKA
  124   130     1     0     0
SMALL
No Charge or Current Charge


@<TRIPOS>ATOM
      1 C1          84.1450    53.4190    22.1130 c          1 OKA       0.725000
      2 C2          84.0510    52.4250    23.3520 c3         1 OKA       0.047000
      3 C3          85.4470    52.2010    24.0150 c3         1 OKA      -0.065400
      4 C4          86.2260    53.4770    24.4670 c6         1 OKA       0.175300
      5 C5          87.4930    53.1080    25.2810 c6         1 OKA      -0.105400
      6 C6          88.2080    54.3850    25.7750 c6         1 OKA      -0.070400
      7 C7          87.2290    55.2880    26.5700 c6         1 OKA       0.166300
      8 C8          85.9120    55.5430    25.7340 c6         1 OKA       0.401200
      9 C9          84.8610    56.2430    26.5900 c2         1 OKA      -0.240200
     10 C10         84.1180    57.2820    26.1680 c2         1 OKA      -0.089400
     11 C11         84.2800    57.8410    24.7600 c6         1 OKA      -0.066200
     12 C12         85.0910    56.8750    23.8590 c6         1 OKA       0.164300
     13 C13         85.6430    57.5240    22.5480 c3         1 OKA      -0.016500
     14 C14         86.4930    56.5400    21.7590 c2         1 OKA      -0.152200
     15 C15         87.8370    56.5280    21.7270 c2         1 OKA      -0.255200
     16 C16         88.5650    55.3980    21.0180 c5         1 OKA       0.202500
     17 C17         89.6250    55.9550    20.0400 c5         1 OKA      -0.098400
     18 C18         90.6750    54.7980    20.0180 c5         1 OKA      -0.086400
     19 C19         90.3390    53.9540    21.2950 c5         1 OKA       0.375000
     20 C20         91.5500    53.6140    22.2050 c6         1 OKA      -0.078400
     21 C21         91.1540    52.6530    23.3450 c6         1 OKA      -0.067400
     22 C22         90.5190    51.3870    22.7440 c6         1 OKA       0.132300
     23 C23         89.3200    51.7480    21.8240 c6         1 OKA       0.147300
     24 C24         88.7590    50.4350    21.2070 c6         1 OKA       0.217500
     25 C25         88.3920    49.4580    22.3350 c2         1 OKA      -0.203400
     26 C26         89.5280    49.2200    23.3450 c6         1 OKA       0.213500
     27 C27         90.6610    48.2850    22.7630 c3         1 OKA       0.147300
     28 C28         90.1460    46.8620    22.4030 c3         1 OKA      -0.108400
     29 C29         91.1750    45.8740    21.7620 c3         1 OKA      -0.057700
     30 C30         90.5550    44.4560    21.4740 c6         1 OKA       0.180300
     31 C31         89.9030    43.7290    22.6980 c6         1 OKA      -0.085700
     32 C32         89.3710    42.3500    22.2210 c6         1 OKA      -0.069400
     33 C33         90.4830    41.5290    21.5200 c6         1 OKA      -0.083400
     34 C34         91.1870    42.3440    20.3960 c6         1 OKA       0.392000
     35 C35         92.4310    41.5550    19.8880 c6         1 OKA      -0.083400
     36 C36         93.0850    42.2370    18.6600 c6         1 OKA      -0.069400
     37 C37         92.0270    42.5000    17.5650 c6         1 OKA      -0.109400
     38 C38         90.8220    43.2650    18.1580 c6         1 OKA       0.159600
     39 C39         90.8570    43.5880    23.9240 c3         1 OKA      -0.084100
     40 C40         91.8080    46.4870    20.4800 c3         1 OKA      -0.088100
     41 C41         87.1870    48.8690    22.4850 c2         1 OKA      -0.269000
     42 C42         84.5400    58.1070    21.6360 c3         1 OKA      -0.088100
     43 C43         83.0920    57.9880    27.0320 c3         1 OKA      -0.050900
     44 C44         83.4680    51.0740    22.8660 c3         1 OKA      -0.095100
     45 O1          83.2910    54.2880    21.9770 o          1 OKA      -0.722500
     46 O2          85.0970    53.3190    21.3510 o          1 OKA      -0.722500
     47 O3          83.1720    52.9090    24.3990 oh         1 OKA      -0.629000
     48 O4          85.3490    54.2900    25.2860 os         1 OKA      -0.465000
     49 O5          87.8900    56.5240    26.9050 oh         1 OKA      -0.720000
     50 O6          86.2280    56.3760    24.5970 os         1 OKA      -0.464000
     51 O7          89.3770    54.7520    22.0010 os         1 OKA      -0.465000
     52 O8          89.6550    52.7600    20.8290 os         1 OKA      -0.470000
     53 O9          90.0790    50.4920    23.7900 os         1 OKA      -0.434000
     54 O10         87.6410    50.6820    20.3430 oh         1 OKA      -0.663000
     55 O11         91.7720    48.1570    23.6720 oh         1 OKA      -0.716000
     56 O12         91.6070    43.6230    20.9240 os         1 OKA      -0.491000
     57 O13         90.2760    42.5440    19.2870 os         1 OKA      -0.486000
     58 H31         85.3200    51.5320    24.8760 hc         1 OKA       0.027700
     59 H32         86.0800    51.6460    23.3110 hc         1 OKA       0.027700
     60 H41         86.5180    54.0480    23.5720 h1         1 OKA       0.088700
     61 H51         87.2150    52.4840    26.1420 hc         1 OKA       0.042700
     62 H52         88.1750    52.5060    24.6700 hc         1 OKA       0.042700
     63 H61         89.0670    54.1140    26.4040 hc         1 OKA       0.058700
     64 H62         88.6090    54.9340    24.9120 hc         1 OKA       0.058700
     65 H71         86.9520    54.7560    27.4930 h1         1 OKA       0.028700
     66 H91         84.7420    55.8480    27.5970 ha         1 OKA       0.172000
     67 H111        83.2910    58.0050    24.3120 hc         1 OKA       0.047200
     68 H112        84.7720    58.8220    24.8110 hc         1 OKA       0.047200
     69 H121        84.4510    56.0240    23.5820 h1         1 OKA       0.113700
     70 H131        86.2810    58.3680    22.8410 hc         1 OKA       0.034700
     71 H141        85.9160    55.7700    21.2430 ha         1 OKA       0.233000
     72 H151        88.4030    57.2800    22.2750 ha         1 OKA       0.154000
     73 H161        87.8960    54.6620    20.5440 h1         1 OKA       0.095700
     74 H171        89.2080    56.1690    19.0500 hc         1 OKA       0.046700
     75 H172        90.0730    56.8820    20.4170 hc         1 OKA       0.046700
     76 H181        90.5920    54.1980    19.1040 hc         1 OKA       0.050200
     77 H182        91.6980    55.1910    20.0410 hc         1 OKA       0.050200
     78 H201        92.3460    53.1620    21.5970 hc         1 OKA       0.048700
     79 H202        91.9680    54.5390    22.6240 hc         1 OKA       0.048700
     80 H211        92.0380    52.3850    23.9380 hc         1 OKA       0.061700
     81 H212        90.4480    53.1460    24.0270 hc         1 OKA       0.061700
     82 H221        91.2880    50.8790    22.1440 h1         1 OKA       0.025700
     83 H231        88.5300    52.1720    22.4590 h1         1 OKA       0.099700
     84 H241        89.5640    49.9780    20.6120 h1         1 OKA       0.023700
     85 H261        89.1190    48.7150    24.2330 h1         1 OKA       0.083700
     86 H271        91.0090    48.7530    21.8340 h1         1 OKA       0.038700
     87 H281        89.7430    46.4250    23.3240 hc         1 OKA       0.054700
     88 H282        89.2970    46.9570    21.7150 hc         1 OKA       0.054700
     89 H291        91.9940    45.7320    22.4770 hc         1 OKA       0.054700
     90 H301        89.7820    44.5960    20.7040 h1         1 OKA       0.046700
     91 H311        89.0360    44.3070    23.0440 hc         1 OKA       0.056700
     92 H321        88.9580    41.7830    23.0660 hc         1 OKA       0.047700
     93 H322        88.5390    42.5040    21.5200 hc         1 OKA       0.047700
     94 H331        91.2250    41.2030    22.2610 hc         1 OKA       0.052700
     95 H332        90.0530    40.6110    21.0990 hc         1 OKA       0.052700
     96 H351        93.1690    41.4600    20.6950 hc         1 OKA       0.052700
     97 H352        92.1320    40.5330    19.6200 hc         1 OKA       0.052700
     98 H361        93.5460    43.1870    18.9650 hc         1 OKA       0.046200
     99 H362        93.8940    41.6080    18.2630 hc         1 OKA       0.046200
    100 H371        92.4680    43.0760    16.7410 hc         1 OKA       0.045200
    101 H372        91.6830    41.5480    17.1370 hc         1 OKA       0.045200
    102 H381        91.1290    44.2720    18.4750 h1         1 OKA       0.049700
    103 H382        90.0390    43.3770    17.3940 h1         1 OKA       0.049700
    104 H391        90.3910    42.9930    24.7190 hc         1 OKA       0.036033
    105 H392        91.8010    43.1010    23.6540 hc         1 OKA       0.036033
    106 H393        91.1010    44.5650    24.3570 hc         1 OKA       0.036033
    107 H401        92.5330    45.8010    20.0260 hc         1 OKA       0.036700
    108 H402        91.0360    46.7060    19.7330 hc         1 OKA       0.036700
    109 H403        92.3490    47.4130    20.7000 hc         1 OKA       0.036700
    110 H411        86.3540    49.0380    21.8020 ha         1 OKA       0.176000
    111 H412        86.9810    48.1940    23.3170 ha         1 OKA       0.176000
    112 H421        84.9780    58.5230    20.7210 hc         1 OKA       0.038033
    113 H422        83.8200    57.3310    21.3500 hc         1 OKA       0.038033
    114 H423        83.9950    58.9140    22.1410 hc         1 OKA       0.038033
    115 H431        83.3400    59.0500    27.1480 hc         1 OKA       0.035033
    116 H432        82.0920    57.9240    26.5890 hc         1 OKA       0.035033
    117 H433        83.0380    57.5500    28.0360 hc         1 OKA       0.035033
    118 H441        83.3810    50.3580    23.6930 hc         1 OKA       0.020367
    119 H442        82.4720    51.2160    22.4300 hc         1 OKA       0.020367
    120 H443        84.1110    50.6280    22.0980 hc         1 OKA       0.020367
    121 HO3         83.7120    53.5760    24.8850 ho         1 OKA       0.393000
    122 HO5         87.6850    57.1220    26.1490 ho         1 OKA       0.496000
    123 HO10        87.4320    49.8240    19.9170 ho         1 OKA       0.489000
    124 HO11        92.4950    47.7070    23.1830 ho         1 OKA       0.493000
@<TRIPOS>BOND
     1     1     2 1   
     2     1    45 1   
     3     1    46 1   
     4     2     3 1   
     5     2    44 1   
     6     2    47 1   
     7     3     4 1   
     8     3    58 1   
     9     3    59 1   
    10     4     5 1   
    11     4    48 1   
    12     4    60 1   
    13     5     6 1   
    14     5    61 1   
    15     5    62 1   
    16     6     7 1   
    17     6    63 1   
    18     6    64 1   
    19     7     8 1   
    20     7    49 1   
    21     7    65 1   
    22     8     9 1   
    23     8    48 1   
    24     8    50 1   
    25     9    10 2   
    26     9    66 1   
    27    10    11 1   
    28    10    43 1   
    29    11    12 1   
    30    11    67 1   
    31    11    68 1   
    32    12    13 1   
    33    12    50 1   
    34    12    69 1   
    35    13    14 1   
    36    13    42 1   
    37    13    70 1   
    38    14    15 2   
    39    14    71 1   
    40    15    16 1   
    41    15    72 1   
    42    16    17 1   
    43    16    51 1   
    44    16    73 1   
    45    17    18 1   
    46    17    74 1   
    47    17    75 1   
    48    18    19 1   
    49    18    76 1   
    50    18    77 1   
    51    19    20 1   
    52    19    51 1   
    53    19    52 1   
    54    20    21 1   
    55    20    78 1   
    56    20    79 1   
    57    21    22 1   
    58    21    80 1   
    59    21    81 1   
    60    22    23 1   
    61    22    53 1   
    62    22    82 1   
    63    23    24 1   
    64    23    52 1   
    65    23    83 1   
    66    24    25 1   
    67    24    54 1   
    68    24    84 1   
    69    25    26 1   
    70    25    41 2   
    71    26    27 1   
    72    26    53 1   
    73    26    85 1   
    74    27    28 1   
    75    27    55 1   
    76    27    86 1   
    77    28    29 1   
    78    28    87 1   
    79    28    88 1   
    80    29    30 1   
    81    29    40 1   
    82    29    89 1   
    83    30    31 1   
    84    30    56 1   
    85    30    90 1   
    86    31    32 1   
    87    31    39 1   
    88    31    91 1   
    89    32    33 1   
    90    32    92 1   
    91    32    93 1   
    92    33    34 1   
    93    33    94 1   
    94    33    95 1   
    95    34    35 1   
    96    34    56 1   
    97    34    57 1   
    98    35    36 1   
    99    35    96 1   
   100    35    97 1   
   101    36    37 1   
   102    36    98 1   
   103    36    99 1   
   104    37    38 1   
   105    37   100 1   
   106    37   101 1   
   107    38    57 1   
   108    38   102 1   
   109    38   103 1   
   110    39   104 1   
   111    39   105 1   
   112    39   106 1   
   113    40   107 1   
   114    40   108 1   
   115    40   109 1   
   116    41   110 1   
   117    41   111 1   
   118    42   112 1   
   119    42   113 1   
   120    42   114 1   
   121    43   115 1   
   122    43   116 1   
   123    43   117 1   
   124    44   118 1   
   125    44   119 1   
   126    44   120 1   
   127    47   121 1   
   128    49   122 1   
   129    54   123 1   
   130    55   124 1   
@<TRIPOS>SUBSTRUCTURE
     1 OKA         1 TEMP              0 ****  ****    0 ROOT
