@<TRIPOS>MOLECULE
OKC
   47    50     1     0     0
SMALL
No Charge or Current Charge


@<TRIPOS>ATOM
      1 O1         -23.2070   -11.9970    -4.7680 o          1 OKC      -0.513500
      2 S          -22.9570   -11.5640    -6.1410 sy         1 OKC       1.134600
      3 O          -23.9900   -10.9420    -6.9670 o          1 OKC      -0.513500
      4 N1         -21.7900   -10.4200    -6.0030 n8         1 OKC      -1.003100
      5 C15        -22.1040   -12.8550    -7.0840 ca         1 OKC      -0.279500
      6 C14        -21.7990   -14.0510    -6.3950 ca         1 OKC      -0.033000
      7 C13        -21.1880   -15.1210    -7.0550 ca         1 OKC      -0.109000
      8 C12        -20.8650   -15.0100    -8.4090 ca         1 OKC      -0.055000
      9 C16        -21.7650   -12.7220    -8.4740 ca         1 OKC      -0.039500
     10 C17        -22.1090   -11.5060    -9.2430 cc         1 OKC       0.431000
     11 N5         -21.7810   -10.2240    -8.9110 na         1 OKC      -0.210700
     12 N4         -22.1690    -9.3600    -9.8800 nc         1 OKC      -0.189800
     13 N3         -22.7090   -10.1220   -10.7920 nd         1 OKC      -0.032000
     14 N2         -22.6820   -11.4490   -10.4300 nd         1 OKC      -0.339000
     15 C          -21.1370   -13.8270    -9.1320 cp         1 OKC      -0.007000
     16 C1         -20.7000   -13.7680   -10.5600 cp         1 OKC      -0.061000
     17 C11        -21.1400   -14.7380   -11.4910 ca         1 OKC      -0.089000
     18 C10        -20.7250   -14.6940   -12.8330 ca         1 OKC      -0.102500
     19 C4         -19.8520   -13.6810   -13.2770 ca         1 OKC      -0.055300
     20 C3         -19.3970   -12.7170   -12.3550 ca         1 OKC      -0.102500
     21 C2         -19.8120   -12.7630   -11.0140 ca         1 OKC      -0.089000
     22 C5         -19.4080   -13.6400   -14.7480 c6         1 OKC      -0.020400
     23 C9         -19.8580   -12.3350   -15.4600 c6         1 OKC      -0.069900
     24 C8         -19.3830   -12.3110   -16.9340 c6         1 OKC       0.159300
     25 N          -17.9140   -12.4950   -17.0300 n7         1 OKC      -0.863400
     26 C7         -17.4500   -13.7500   -16.3910 c6         1 OKC       0.159300
     27 C6         -17.8720   -13.8140   -14.9020 c6         1 OKC      -0.069900
     28 H1         -22.2060    -9.7860    -5.3240 hn         1 OKC       0.475000
     29 H2         -21.0850   -10.9070    -5.4510 hn         1 OKC       0.475000
     30 H3         -22.0470   -14.1690    -5.3410 ha         1 OKC       0.142000
     31 H4         -20.9630   -16.0380    -6.5140 ha         1 OKC       0.127000
     32 H5         -20.3780   -15.8450    -8.9090 ha         1 OKC       0.130000
     33 H6         -21.3680    -9.9210    -8.0340 hn         1 OKC       0.374000
     34 H7         -21.8160   -15.5260   -11.1680 ha         1 OKC       0.111000
     35 H8         -21.0860   -15.4500   -13.5260 ha         1 OKC       0.118000
     36 H9         -18.7180   -11.9300   -12.6730 ha         1 OKC       0.118000
     37 H10        -19.4420   -12.0160   -10.3170 ha         1 OKC       0.111000
     38 H11        -19.8850   -14.4790   -15.2740 hc         1 OKC       0.048700
     39 H12        -19.4570   -11.4560   -14.9380 hc         1 OKC       0.050450
     40 H13        -20.9520   -12.2470   -15.4240 hc         1 OKC       0.050450
     41 H14        -19.6640   -11.3530   -17.3970 h1         1 OKC       0.029700
     42 H15        -19.8880   -13.1120   -17.4940 h1         1 OKC       0.029700
     43 H16        -17.6460   -12.5100   -18.0230 hn         1 OKC       0.411000
     44 H18        -17.8740   -14.6120   -16.9290 h1         1 OKC       0.029700
     45 H19        -16.3550   -13.8180   -16.4670 h1         1 OKC       0.029700
     46 H20        -17.5590   -14.7740   -14.4710 hc         1 OKC       0.050450
     47 H21        -17.3410   -13.0320   -14.3430 hc         1 OKC       0.050450
@<TRIPOS>BOND
     1     1     2 2   
     2     2     3 2   
     3     2     4 1   
     4     2     5 1   
     5     4    28 1   
     6     4    29 1   
     7     5     6 ar  
     8     5     9 ar  
     9     6     7 ar  
    10     6    30 1   
    11     7     8 ar  
    12     7    31 1   
    13     8    15 ar  
    14     8    32 1   
    15     9    10 1   
    16     9    15 ar  
    17    10    11 1   
    18    10    14 2   
    19    11    12 1   
    20    11    33 1   
    21    12    13 2   
    22    13    14 1   
    23    15    16 1   
    24    16    17 ar  
    25    16    21 ar  
    26    17    18 ar  
    27    17    34 1   
    28    18    19 ar  
    29    18    35 1   
    30    19    20 ar  
    31    19    22 1   
    32    20    21 ar  
    33    20    36 1   
    34    21    37 1   
    35    22    23 1   
    36    22    27 1   
    37    22    38 1   
    38    23    24 1   
    39    23    39 1   
    40    23    40 1   
    41    24    25 1   
    42    24    41 1   
    43    24    42 1   
    44    25    26 1   
    45    25    43 1   
    46    26    27 1   
    47    26    44 1   
    48    26    45 1   
    49    27    46 1   
    50    27    47 1   
@<TRIPOS>SUBSTRUCTURE
     1 OKC         1 TEMP              0 ****  ****    0 ROOT
