@<TRIPOS>MOLECULE
OKC
   47    50     1     0     0
SMALL
bcc


@<TRIPOS>ATOM
      1 O1         -23.6640   -12.2700    -5.1010 o          1 OKC      -0.584300
      2 S          -23.0050   -11.5910    -6.2010 sy         1 OKC       1.276200
      3 O          -23.7850   -10.7880    -7.1240 o          1 OKC      -0.584300
      4 N1         -21.8840   -10.6000    -5.5310 n8         1 OKC      -0.892700
      5 C15        -22.1130   -12.8400    -7.1260 ca         1 OKC      -0.279500
      6 C14        -21.7380   -13.9730    -6.4190 ca         1 OKC      -0.051000
      7 C13        -21.0530   -14.9880    -7.0650 ca         1 OKC      -0.127000
      8 C12        -20.7410   -14.8660    -8.4070 ca         1 OKC      -0.073000
      9 C16        -21.8020   -12.7040    -8.4820 ca         1 OKC      -0.039500
     10 C17        -22.2430   -11.5630    -9.2980 cc         1 OKC       0.431000
     11 N5         -21.7010   -10.3460    -9.3210 na         1 OKC      -0.160400
     12 N4         -22.3350    -9.6100   -10.2140 nc         1 OKC      -0.189800
     13 N3         -23.2310   -10.3590   -10.7250 nd         1 OKC      -0.032000
     14 N2         -23.2030   -11.5790   -10.1890 nd         1 OKC      -0.339000
     15 C          -21.1000   -13.7300    -9.1280 cp         1 OKC      -0.007000
     16 C1         -20.7220   -13.6440   -10.5570 cp         1 OKC      -0.061000
     17 C11        -21.1950   -14.5880   -11.4630 ca         1 OKC      -0.107000
     18 C10        -20.8040   -14.5470   -12.7940 ca         1 OKC      -0.120500
     19 C4         -19.9250   -13.5740   -13.2600 ca         1 OKC      -0.055300
     20 C3         -19.4540   -12.6320   -12.3450 ca         1 OKC      -0.120500
     21 C2         -19.8450   -12.6630   -11.0160 ca         1 OKC      -0.107000
     22 C5         -19.4670   -13.5720   -14.6950 c6         1 OKC      -0.020400
     23 C9         -19.7450   -12.2500   -15.4160 c6         1 OKC      -0.069900
     24 C8         -19.2250   -12.3040   -16.8470 c6         1 OKC       0.159300
     25 N          -17.8050   -12.6020   -16.8490 n7         1 OKC      -0.808200
     26 C7         -17.5300   -13.9010   -16.2630 c6         1 OKC       0.159300
     27 C6         -17.9780   -13.9190   -14.8100 c6         1 OKC      -0.069900
     28 H1         -21.2870   -11.0550    -4.8500 hn         1 OKC       0.419800
     29 H2         -21.3440   -10.0580    -6.1960 hn         1 OKC       0.419800
     30 H3         -21.9840   -14.0760    -5.3720 ha         1 OKC       0.160000
     31 H4         -20.7620   -15.8730    -6.5170 ha         1 OKC       0.145000
     32 H5         -20.1990   -15.6570    -8.9090 ha         1 OKC       0.148000
     33 H6         -20.9290    -9.9710    -8.7860 hn         1 OKC       0.323700
     34 H7         -21.8790   -15.3600   -11.1300 ha         1 OKC       0.129000
     35 H8         -21.1890   -15.2920   -13.4800 ha         1 OKC       0.136000
     36 H9         -18.7590   -11.8650   -12.6650 ha         1 OKC       0.136000
     37 H10        -19.4380   -11.9330   -10.3270 ha         1 OKC       0.129000
     38 H11        -20.0270   -14.3540   -15.2220 hc         1 OKC       0.048700
     39 H12        -19.2580   -11.4250   -14.8890 hc         1 OKC       0.050450
     40 H13        -20.8170   -12.0420   -15.4210 hc         1 OKC       0.050450
     41 H14        -19.3870   -11.3420   -17.3360 h1         1 OKC       0.029700
     42 H15        -19.8130   -13.0510   -17.4080 h1         1 OKC       0.029700
     43 H16        -17.4560   -12.5780   -17.7990 hn         1 OKC       0.355800
     44 H18        -18.0360   -14.7220   -16.8000 h1         1 OKC       0.029700
     45 H19        -16.4580   -14.0980   -16.3240 h1         1 OKC       0.029700
     46 H20        -17.7890   -14.9050   -14.3770 hc         1 OKC       0.050450
     47 H21        -17.3860   -13.1970   -14.2400 hc         1 OKC       0.050450
@<TRIPOS>BOND
     1     1     2 2   
     2     2     3 2   
     3     2     4 1   
     4     2     5 1   
     5     4    28 1   
     6     4    29 1   
     7     5     6 ar  
     8     5     9 ar  
     9     6     7 ar  
    10     6    30 1   
    11     7     8 ar  
    12     7    31 1   
    13     8    15 ar  
    14     8    32 1   
    15     9    10 1   
    16     9    15 ar  
    17    10    11 1   
    18    10    14 2   
    19    11    12 1   
    20    11    33 1   
    21    12    13 2   
    22    13    14 1   
    23    15    16 1   
    24    16    17 ar  
    25    16    21 ar  
    26    17    18 ar  
    27    17    34 1   
    28    18    19 ar  
    29    18    35 1   
    30    19    20 ar  
    31    19    22 1   
    32    20    21 ar  
    33    20    36 1   
    34    21    37 1   
    35    22    23 1   
    36    22    27 1   
    37    22    38 1   
    38    23    24 1   
    39    23    39 1   
    40    23    40 1   
    41    24    25 1   
    42    24    41 1   
    43    24    42 1   
    44    25    26 1   
    45    25    43 1   
    46    26    27 1   
    47    26    44 1   
    48    26    45 1   
    49    27    46 1   
    50    27    47 1   
@<TRIPOS>SUBSTRUCTURE
     1 OKC         1 TEMP              0 ****  ****    0 ROOT
