@<TRIPOS>MOLECULE
OKD
   79    79     1     0     0
SMALL
abcg2


@<TRIPOS>ATOM
      1 CAA         14.2080    -2.6590    -0.0020 c3         1 OKD       0.147900
      2 OBC         12.8490    -3.0070    -0.0640 os         1 OKD      -0.441000
      3 CAL         12.1910    -2.4110    -1.1520 c3         1 OKD       0.157600
      4 CAM         10.7410    -2.8180    -1.1620 c3         1 OKD       0.162600
      5 OBD         10.0860    -2.2860    -0.0380 os         1 OKD      -0.438000
      6 CAN          8.7230    -2.6210     0.0010 c3         1 OKD       0.159600
      7 CAO          8.0820    -2.0150     1.2220 c3         1 OKD       0.162600
      8 OBE          8.0970    -0.6140     1.1220 os         1 OKD      -0.436000
      9 CAP          7.4630     0.0140     2.2070 c3         1 OKD       0.161600
     10 CAQ          7.4790     1.5080     2.0130 c3         1 OKD       0.163600
     11 OBF          6.7290     1.8410     0.8720 os         1 OKD      -0.426000
     12 CAR          6.5900     3.2260     0.6920 c3         1 OKD       0.161600
     13 CAS          5.8870     3.4970    -0.6130 c3         1 OKD       0.166600
     14 OBG          4.5870     2.9600    -0.5750 os         1 OKD      -0.442000
     15 CAX          3.8880     3.1620    -1.7710 c3         1 OKD       0.151300
     16 CBL          2.5600     2.4990    -1.6560 cc         1 OKD       0.167300
     17 CAI          1.9160     2.0190    -0.5450 cd         1 OKD      -0.185000
     18 NAY          1.7710     2.2690    -2.7250 nc         1 OKD      -0.388000
     19 NAZ          0.6890     1.6830    -2.3330 nd         1 OKD      -0.189800
     20 NBO          0.7630     1.5210    -1.0280 na         1 OKD       0.145800
     21 CAW         -0.3380     0.9180    -0.3000 c3         1 OKD       0.067600
     22 CAK         -1.4890     1.8890    -0.0810 c3         1 OKD      -0.093400
     23 CAJ         -2.6520     1.2150     0.6350 c3         1 OKD      -0.080400
     24 CB          -3.8030     2.1770     0.8970 c3         1 OKD      -0.061400
     25 CA          -5.0260     1.5190     1.5370 c3         1 OKD      -0.027300
     26 C           -6.0470     2.5970     1.9800 c          1 OKD       0.708000
     27 OXT         -5.6790     3.3150     2.9330 o          1 OKD      -0.740000
     28 O           -7.1170     2.6760     1.3510 o          1 OKD      -0.740000
     29 N           -5.5720     0.5470     0.6190 ns         1 OKD      -0.482900
     30 CBK         -6.5380    -0.3220     1.0290 c          1 OKD       0.648100
     31 OAE         -6.7560    -0.5550     2.2150 o          1 OKD      -0.669100
     32 NBB         -7.2460    -0.9120     0.0250 ns         1 OKD      -0.445900
     33 CBN         -7.9690    -2.1380     0.2830 c3         1 OKD      -0.039300
     34 CBJ         -7.0500    -3.3070     0.7140 c          1 OKD       0.712000
     35 OAH         -5.8360    -3.2130     0.4580 o          1 OKD      -0.762500
     36 OAD         -7.6280    -4.2710     1.2610 o          1 OKD      -0.762500
     37 CAV         -8.7620    -2.5300    -0.9650 c3         1 OKD      -0.048400
     38 CAT         -9.8200    -1.5140    -1.3620 c3         1 OKD      -0.198400
     39 CBH        -10.6500    -1.8670    -2.6090 c          1 OKD       0.710000
     40 OAF        -10.3970    -2.9360    -3.2000 o          1 OKD      -0.776000
     41 OAB        -11.5270    -1.0370    -2.9340 o          1 OKD      -0.776000
     42 HAA1        14.3520    -1.5800     0.1270 h1         1 OKD       0.023033
     43 HAA2        14.6490    -3.1690     0.8540 h1         1 OKD       0.023033
     44 HAA3        14.7530    -2.9630    -0.9040 h1         1 OKD       0.023033
     45 HAL1        12.2730    -1.3150    -1.1110 h1         1 OKD       0.026700
     46 HAL2        12.6390    -2.7260    -2.1050 h1         1 OKD       0.026700
     47 HAM1        10.2900    -2.4470    -2.0930 h1         1 OKD       0.027700
     48 HAM2        10.6590    -3.9140    -1.1850 h1         1 OKD       0.027700
     49 HAN1         8.2050    -2.2740    -0.9050 h1         1 OKD       0.031700
     50 HAN2         8.5830    -3.7100     0.0480 h1         1 OKD       0.031700
     51 HAO1         7.0520    -2.3940     1.2910 h1         1 OKD       0.030200
     52 HAO2         8.6050    -2.3530     2.1290 h1         1 OKD       0.030200
     53 HAP1         6.4260    -0.3350     2.3130 h1         1 OKD       0.030200
     54 HAP2         7.9740    -0.2160     3.1530 h1         1 OKD       0.030200
     55 HAQ1         7.0580     1.9710     2.9160 h1         1 OKD       0.022700
     56 HAQ2         8.5140     1.8690     1.9230 h1         1 OKD       0.022700
     57 HAR1         6.0330     3.6790     1.5250 h1         1 OKD       0.021700
     58 HAR2         7.5670     3.7270     0.6540 h1         1 OKD       0.021700
     59 HAS1         5.8620     4.5840    -0.7730 h1         1 OKD       0.023700
     60 HAS2         6.4610     3.0650    -1.4440 h1         1 OKD       0.023700
     61 HAX1         3.7610     4.2350    -1.9770 h1         1 OKD       0.028700
     62 HAX2         4.4320     2.7460    -2.6300 h1         1 OKD       0.028700
     63 HAI          2.1730     1.9880     0.5000 h4         1 OKD       0.171000
     64 HAW1        -0.6670     0.0450    -0.8630 h1         1 OKD       0.071700
     65 HAW2         0.0570     0.5650     0.6520 h1         1 OKD       0.071700
     66 HAK1        -1.1350     2.7470     0.4990 hc         1 OKD       0.045200
     67 HAK2        -1.8250     2.2740    -1.0470 hc         1 OKD       0.045200
     68 HAJ1        -3.0000     0.3660     0.0400 hc         1 OKD       0.051700
     69 HAJ2        -2.3090     0.8000     1.5890 hc         1 OKD       0.051700
     70 HB1C        -3.4610     2.9790     1.5540 hc         1 OKD       0.030700
     71 HB2C        -4.1030     2.6600    -0.0420 hc         1 OKD       0.030700
     72 HA          -4.6910     0.9900     2.4330 h1         1 OKD       0.060700
     73 H           -5.6370     0.8610    -0.3380 hn         1 OKD       0.266500
     74 HBB         -6.8290    -0.8610    -0.8930 hn         1 OKD       0.268500
     75 HBN         -8.6820    -1.9550     1.0920 h1         1 OKD       0.057700
     76 HAV1        -8.0650    -2.6890    -1.7950 hc         1 OKD       0.035700
     77 HAV2        -9.2310    -3.4960    -0.7750 hc         1 OKD       0.035700
     78 HAT1       -10.5120    -1.3620    -0.5250 hc         1 OKD       0.022700
     79 HAT2        -9.3600    -0.5340    -1.5270 hc         1 OKD       0.022700
@<TRIPOS>BOND
     1     1     2 1   
     2     1    42 1   
     3     1    43 1   
     4     1    44 1   
     5     2     3 1   
     6     3     4 1   
     7     3    45 1   
     8     3    46 1   
     9     4     5 1   
    10     4    47 1   
    11     4    48 1   
    12     5     6 1   
    13     6     7 1   
    14     6    49 1   
    15     6    50 1   
    16     7     8 1   
    17     7    51 1   
    18     7    52 1   
    19     8     9 1   
    20     9    10 1   
    21     9    53 1   
    22     9    54 1   
    23    10    11 1   
    24    10    55 1   
    25    10    56 1   
    26    11    12 1   
    27    12    13 1   
    28    12    57 1   
    29    12    58 1   
    30    13    14 1   
    31    13    59 1   
    32    13    60 1   
    33    14    15 1   
    34    15    16 1   
    35    15    61 1   
    36    15    62 1   
    37    16    17 2   
    38    16    18 1   
    39    17    20 1   
    40    17    63 1   
    41    18    19 2   
    42    19    20 1   
    43    20    21 1   
    44    21    22 1   
    45    21    64 1   
    46    21    65 1   
    47    22    23 1   
    48    22    66 1   
    49    22    67 1   
    50    23    24 1   
    51    23    68 1   
    52    23    69 1   
    53    24    25 1   
    54    24    70 1   
    55    24    71 1   
    56    25    26 1   
    57    25    29 1   
    58    25    72 1   
    59    26    27 1   
    60    26    28 1   
    61    29    30 1   
    62    29    73 1   
    63    30    31 2   
    64    30    32 1   
    65    32    33 1   
    66    32    74 1   
    67    33    34 1   
    68    33    37 1   
    69    33    75 1   
    70    34    35 1   
    71    34    36 1   
    72    37    38 1   
    73    37    76 1   
    74    37    77 1   
    75    38    39 1   
    76    38    78 1   
    77    38    79 1   
    78    39    40 1   
    79    39    41 1   
@<TRIPOS>SUBSTRUCTURE
     1 OKD         1 TEMP              0 ****  ****    0 ROOT
