@<TRIPOS>MOLECULE
OKD
   79    79     1     0     0
SMALL
No Charge or Current Charge


@<TRIPOS>ATOM
      1 CAA         14.7810    -2.8000     2.0030 c3         1 OKD       0.147900
      2 OBC         13.7260    -2.9870     1.0460 os         1 OKD      -0.441000
      3 CAL         13.4340    -1.8230     0.2460 c3         1 OKD       0.157600
      4 CAM         12.2790    -2.1550    -0.7310 c3         1 OKD       0.162600
      5 OBD         11.0490    -2.2600     0.0120 os         1 OKD      -0.438000
      6 CAN          9.8920    -2.5750    -0.7890 c3         1 OKD       0.159600
      7 CAO          8.6470    -2.6450     0.1260 c3         1 OKD       0.162600
      8 OBE          8.2980    -1.3110     0.5490 os         1 OKD      -0.436000
      9 CAP          7.1510    -1.2420     1.4200 c3         1 OKD       0.161600
     10 CAQ          6.8830     0.2380     1.7860 c3         1 OKD       0.163600
     11 OBF          6.3610     0.9210     0.6290 os         1 OKD      -0.426000
     12 CAR          6.0780     2.3180     0.8390 c3         1 OKD       0.161600
     13 CAS          5.5140     2.9220    -0.4690 c3         1 OKD       0.166600
     14 OBG          4.1790     2.4220    -0.6820 os         1 OKD      -0.442000
     15 CAX          3.5430     2.9090    -1.8790 c3         1 OKD       0.151300
     16 CBL          2.1550     2.3170    -1.9860 cc         1 OKD       0.167300
     17 CAI          1.2820     2.0370    -0.9800 cd         1 OKD      -0.185000
     18 NAY          1.6020     1.9970    -3.1970 nc         1 OKD      -0.388000
     19 NAZ          0.4020     1.5160    -2.9910 nd         1 OKD      -0.189800
     20 NBO          0.1850     1.5300    -1.6360 na         1 OKD       0.145800
     21 CAW         -1.0760     1.0580    -1.0430 c3         1 OKD       0.067600
     22 CAK         -2.0380     2.2080    -0.6730 c3         1 OKD      -0.093400
     23 CAJ         -3.3590     1.7090    -0.0460 c3         1 OKD      -0.080400
     24 CB          -4.3250     2.8600     0.3220 c3         1 OKD      -0.061400
     25 CA          -5.6290     2.4040     1.0290 c3         1 OKD      -0.027300
     26 C           -6.4600     3.6300     1.5280 c          1 OKD       0.708000
     27 OXT         -6.5690     3.8010     2.7350 o          1 OKD      -0.740000
     28 O           -7.0320     4.3300     0.7020 o          1 OKD      -0.740000
     29 N           -6.4600     1.5290     0.1640 ns         1 OKD      -0.482900
     30 CBK         -6.4560     0.1570     0.1830 c          1 OKD       0.648100
     31 OAE         -5.7680    -0.5100     0.9420 o          1 OKD      -0.669100
     32 NBB         -7.3070    -0.3760    -0.7520 ns         1 OKD      -0.445900
     33 CBN         -7.5490    -1.8230    -0.9700 c3         1 OKD      -0.039300
     34 CBJ         -7.5900    -2.1400    -2.4990 c          1 OKD       0.712000
     35 OAH         -8.3550    -1.5040    -3.2130 o          1 OKD      -0.762500
     36 OAD         -6.7990    -2.9620    -2.9410 o          1 OKD      -0.762500
     37 CAV         -8.8370    -2.3200    -0.2580 c3         1 OKD      -0.048400
     38 CAT         -8.8080    -2.2030     1.2890 c3         1 OKD      -0.198400
     39 CBH        -10.0780    -2.8310     1.8920 c          1 OKD       0.710000
     40 OAF        -11.0620    -2.1230     2.0370 o          1 OKD      -0.776000
     41 OAB        -10.0640    -4.0230     2.1590 o          1 OKD      -0.776000
     42 HAA1        14.5280    -2.0010     2.7120 h1         1 OKD       0.023033
     43 HAA2        14.9470    -3.7230     2.5720 h1         1 OKD       0.023033
     44 HAA3        15.7210    -2.5350     1.5000 h1         1 OKD       0.023033
     45 HAL1        13.1460    -0.9710     0.8770 h1         1 OKD       0.026700
     46 HAL2        14.3170    -1.5320    -0.3380 h1         1 OKD       0.026700
     47 HAM1        12.2050    -1.3520    -1.4760 h1         1 OKD       0.027700
     48 HAM2        12.5030    -3.0910    -1.2590 h1         1 OKD       0.027700
     49 HAN1         9.7330    -1.8170    -1.5680 h1         1 OKD       0.031700
     50 HAN2        10.0250    -3.5480    -1.2810 h1         1 OKD       0.031700
     51 HAO1         7.8180    -3.0930    -0.4370 h1         1 OKD       0.030200
     52 HAO2         8.8610    -3.2900     0.9890 h1         1 OKD       0.030200
     53 HAP1         6.2620    -1.6670     0.9360 h1         1 OKD       0.030200
     54 HAP2         7.3400    -1.8050     2.3430 h1         1 OKD       0.030200
     55 HAQ1         6.1560     0.2740     2.6070 h1         1 OKD       0.022700
     56 HAQ2         7.8140     0.7050     2.1330 h1         1 OKD       0.022700
     57 HAR1         5.3510     2.4550     1.6510 h1         1 OKD       0.021700
     58 HAR2         6.9970     2.8540     1.1100 h1         1 OKD       0.021700
     59 HAS1         5.4990     4.0160    -0.3770 h1         1 OKD       0.023700
     60 HAS2         6.1720     2.6590    -1.3090 h1         1 OKD       0.023700
     61 HAX1         3.4610     4.0040    -1.8550 h1         1 OKD       0.028700
     62 HAX2         4.1280     2.6290    -2.7650 h1         1 OKD       0.028700
     63 HAI          1.3570     2.1520     0.0930 h4         1 OKD       0.171000
     64 HAW1        -1.5670     0.3830    -1.7550 h1         1 OKD       0.071700
     65 HAW2        -0.8350     0.4780    -0.1440 h1         1 OKD       0.071700
     66 HAK1        -1.5360     2.8840     0.0300 hc         1 OKD       0.045200
     67 HAK2        -2.2630     2.7910    -1.5750 hc         1 OKD       0.045200
     68 HAJ1        -3.8520     1.0300    -0.7520 hc         1 OKD       0.051700
     69 HAJ2        -3.1330     1.1260     0.8560 hc         1 OKD       0.051700
     70 HB1C        -3.8000     3.5590     0.9840 hc         1 OKD       0.030700
     71 HB2C        -4.5810     3.4200    -0.5860 hc         1 OKD       0.030700
     72 HA          -5.3480     1.8350     1.9240 h1         1 OKD       0.060700
     73 H           -7.0850     1.9770    -0.4940 hn         1 OKD       0.266500
     74 HBB         -7.8070     0.2770    -1.3400 hn         1 OKD       0.268500
     75 HBN         -6.6980    -2.3810    -0.5590 h1         1 OKD       0.057700
     76 HAV1        -9.7020    -1.7680    -0.6460 hc         1 OKD       0.035700
     77 HAV2        -8.9930    -3.3720    -0.5260 hc         1 OKD       0.035700
     78 HAT1        -7.9180    -2.7550     1.6150 hc         1 OKD       0.022700
     79 HAT2        -8.7720    -1.1310     1.5140 hc         1 OKD       0.022700
@<TRIPOS>BOND
     1     1     2 1   
     2     1    42 1   
     3     1    43 1   
     4     1    44 1   
     5     2     3 1   
     6     3     4 1   
     7     3    45 1   
     8     3    46 1   
     9     4     5 1   
    10     4    47 1   
    11     4    48 1   
    12     5     6 1   
    13     6     7 1   
    14     6    49 1   
    15     6    50 1   
    16     7     8 1   
    17     7    51 1   
    18     7    52 1   
    19     8     9 1   
    20     9    10 1   
    21     9    53 1   
    22     9    54 1   
    23    10    11 1   
    24    10    55 1   
    25    10    56 1   
    26    11    12 1   
    27    12    13 1   
    28    12    57 1   
    29    12    58 1   
    30    13    14 1   
    31    13    59 1   
    32    13    60 1   
    33    14    15 1   
    34    15    16 1   
    35    15    61 1   
    36    15    62 1   
    37    16    17 2   
    38    16    18 1   
    39    17    20 1   
    40    17    63 1   
    41    18    19 2   
    42    19    20 1   
    43    20    21 1   
    44    21    22 1   
    45    21    64 1   
    46    21    65 1   
    47    22    23 1   
    48    22    66 1   
    49    22    67 1   
    50    23    24 1   
    51    23    68 1   
    52    23    69 1   
    53    24    25 1   
    54    24    70 1   
    55    24    71 1   
    56    25    26 1   
    57    25    29 1   
    58    25    72 1   
    59    26    27 1   
    60    26    28 1   
    61    29    30 1   
    62    29    73 1   
    63    30    31 2   
    64    30    32 1   
    65    32    33 1   
    66    32    74 1   
    67    33    34 1   
    68    33    37 1   
    69    33    75 1   
    70    34    35 1   
    71    34    36 1   
    72    37    38 1   
    73    37    76 1   
    74    37    77 1   
    75    38    39 1   
    76    38    78 1   
    77    38    79 1   
    78    39    40 1   
    79    39    41 1   
@<TRIPOS>SUBSTRUCTURE
     1 OKD         1 TEMP              0 ****  ****    0 ROOT
