@<TRIPOS>MOLECULE
OKE
   21    21     1     0     0
SMALL
bcc


@<TRIPOS>ATOM
      1 C10          9.1730   -26.4700   -19.1750 ca         1 OKE       0.113100
      2 C01         10.6660   -27.5010   -16.0370 c3         1 OKE       0.135700
      3 C03          9.6340   -27.3350   -18.1730 ca         1 OKE       0.046100
      4 C04          9.5670   -28.7070   -18.3580 ca         1 OKE      -0.168000
      5 C05          9.0370   -29.2110   -19.5410 ca         1 OKE      -0.137000
      6 C06          8.5810   -28.3560   -20.5300 ca         1 OKE      -0.099000
      7 C07          8.6440   -26.9740   -20.3570 ca         1 OKE      -0.092300
      8 C08          8.1650   -26.0010   -21.4010 c3         1 OKE       0.194700
      9 O02         10.1230   -26.7120   -17.0760 os         1 OKE      -0.347900
     10 O09          7.6740   -26.6980   -22.5170 oh         1 OKE      -0.601800
     11 O11          9.2310   -25.1290   -19.0190 oh         1 OKE      -0.504100
     12 H013        11.0120   -26.8100   -15.2730 h1         1 OKE       0.040700
     13 H011         9.9180   -28.1660   -15.5980 h1         1 OKE       0.040700
     14 H012        11.5120   -28.1000   -16.3830 h1         1 OKE       0.040700
     15 H041         9.9190   -29.3900   -17.5960 ha         1 OKE       0.134000
     16 H051         8.9850   -30.2820   -19.6840 ha         1 OKE       0.133000
     17 H061         8.1720   -28.7660   -21.4430 ha         1 OKE       0.153000
     18 H082         8.9940   -25.3360   -21.6770 h1         1 OKE       0.034700
     19 H081         7.3920   -25.3570   -20.9600 h1         1 OKE       0.034700
     20 H091         7.3780   -26.0510   -23.1630 ho         1 OKE       0.407000
     21 H111         9.6250   -24.9100   -18.1660 ho         1 OKE       0.442000
@<TRIPOS>BOND
     1     1     3 ar  
     2     1     7 ar  
     3     1    11 1   
     4     2     9 1   
     5     2    12 1   
     6     2    13 1   
     7     2    14 1   
     8     3     4 ar  
     9     3     9 1   
    10     4     5 ar  
    11     4    15 1   
    12     5     6 ar  
    13     5    16 1   
    14     6     7 ar  
    15     6    17 1   
    16     7     8 1   
    17     8    10 1   
    18     8    18 1   
    19     8    19 1   
    20    10    20 1   
    21    11    21 1   
@<TRIPOS>SUBSTRUCTURE
     1 OKE         1 TEMP              0 ****  ****    0 ROOT
