@<TRIPOS>MOLECULE
OKE
   21    21     1     0     0
SMALL
No Charge or Current Charge


@<TRIPOS>ATOM
      1 C10          9.1990   -26.4450   -19.2290 ca         1 OKE       0.113100
      2 C01         10.9110   -27.5050   -16.0720 c3         1 OKE       0.158900
      3 C03          9.6800   -27.2970   -18.2090 ca         1 OKE       0.046100
      4 C04          9.4370   -28.6850   -18.2850 ca         1 OKE      -0.150000
      5 C05          8.7190   -29.2110   -19.3720 ca         1 OKE      -0.119000
      6 C06          8.2430   -28.3610   -20.3840 ca         1 OKE      -0.081000
      7 C07          8.4780   -26.9720   -20.3250 ca         1 OKE      -0.092300
      8 C08          7.9370   -26.0820   -21.4430 c3         1 OKE       0.217900
      9 O02         10.3810   -26.7240   -17.1600 os         1 OKE      -0.371100
     10 O09          8.6760   -26.2930   -22.6540 oh         1 OKE      -0.664000
     11 O11          9.4490   -25.1050   -19.1240 oh         1 OKE      -0.543100
     12 H013        11.4270   -26.8550   -15.3540 h1         1 OKE       0.040700
     13 H011        10.1070   -28.0290   -15.5390 h1         1 OKE       0.040700
     14 H012        11.6330   -28.2460   -16.4390 h1         1 OKE       0.040700
     15 H041         9.7930   -29.3670   -17.5170 ha         1 OKE       0.116000
     16 H051         8.5310   -30.2810   -19.4310 ha         1 OKE       0.115000
     17 H061         7.6900   -28.7830   -21.2210 ha         1 OKE       0.135000
     18 H082         7.9810   -25.0240   -21.1500 h1         1 OKE       0.034700
     19 H081         6.8770   -26.3230   -21.6010 h1         1 OKE       0.034700
     20 H091         8.2920   -25.6880   -23.3260 ho         1 OKE       0.446000
     21 H111         9.9610   -24.9860   -18.2930 ho         1 OKE       0.481000
@<TRIPOS>BOND
     1     1     3 ar  
     2     1     7 ar  
     3     1    11 1   
     4     2     9 1   
     5     2    12 1   
     6     2    13 1   
     7     2    14 1   
     8     3     4 ar  
     9     3     9 1   
    10     4     5 ar  
    11     4    15 1   
    12     5     6 ar  
    13     5    16 1   
    14     6     7 ar  
    15     6    17 1   
    16     7     8 1   
    17     8    10 1   
    18     8    18 1   
    19     8    19 1   
    20    10    20 1   
    21    11    21 1   
@<TRIPOS>SUBSTRUCTURE
     1 OKE         1 TEMP              0 ****  ****    0 ROOT
