@<TRIPOS>MOLECULE
OKF
   47    50     1     0     0
SMALL
No Charge or Current Charge


@<TRIPOS>ATOM
      1 N1           5.7410     7.7520    17.6740 na         1 OKF      -0.047700
      2 C2           4.4620     7.4270    17.1900 cc         1 OKF       0.059700
      3 C3           3.7710     6.8450    18.2540 cd         1 OKF      -0.119400
      4 C4           4.6290     6.8880    19.4340 ca         1 OKF      -0.072800
      5 C5           5.8190     7.4420    19.0260 ca         1 OKF      -0.031200
      6 C6           6.8950     8.2790    16.9160 c3         1 OKF       0.087600
      7 C7           7.9630     7.2210    16.5570 c3         1 OKF      -0.234400
      8 C8           6.8770     7.6530    19.9270 ca         1 OKF      -0.102000
      9 C9           7.3940     6.2060    15.5590 c          1 OKF       0.713000
     10 C10          3.9440     7.5750    15.8290 ca         1 OKF      -0.025800
     11 C11          2.3410     6.4560    18.2930 ca         1 OKF       0.025200
     12 C12          4.4070     6.5450    20.7800 ca         1 OKF      -0.067000
     13 O13          6.9070     5.1750    15.9950 o          1 OKF      -0.727000
     14 C14          6.6880     7.2860    21.2740 ca         1 OKF      -0.113000
     15 C15          5.4570     6.7370    21.7060 ca         1 OKF      -0.122300
     16 O16          7.4600     6.4780    14.3700 o          1 OKF      -0.727000
     17 C17          3.3890     6.4680    15.1560 ca         1 OKF      -0.069000
     18 C18          1.9180     5.3610    19.0760 ca         1 OKF      -0.107000
     19 C19          1.3710     7.1540    17.5380 ca         1 OKF      -0.107000
     20 C20          3.9890     8.8240    15.1800 ca         1 OKF      -0.069000
     21 C21          5.2560     6.3740    23.1700 c3         1 OKF      -0.030800
     22 C22          3.4830     8.9660    13.8750 ca         1 OKF      -0.118500
     23 C23          0.5650     4.9790    19.1140 ca         1 OKF      -0.118500
     24 C24          0.0180     6.7740    17.5750 ca         1 OKF      -0.118500
     25 C25          2.8830     6.6090    13.8520 ca         1 OKF      -0.118500
     26 C26         -0.3860     5.6870    18.3650 ca         1 OKF      -0.134000
     27 C27          2.9300     7.8580    13.2110 ca         1 OKF      -0.110000
     28 H29          6.5350     8.7450    15.9910 h1         1 OKF       0.042700
     29 H28          7.3620     9.0730    17.5110 h1         1 OKF       0.042700
     30 H31          8.7750     7.7910    16.0910 hc         1 OKF       0.031200
     31 H30          8.2520     6.7300    17.4940 hc         1 OKF       0.031200
     32 H32          7.8170     8.0930    19.6050 ha         1 OKF       0.112000
     33 H33          3.4500     6.1620    21.1190 ha         1 OKF       0.103000
     34 H34          7.4940     7.4420    21.9880 ha         1 OKF       0.093000
     35 H36          3.3530     5.4980    15.6450 ha         1 OKF       0.121500
     36 H37          2.6440     4.7700    19.6260 ha         1 OKF       0.119500
     37 H38          1.6520     8.0160    16.9410 ha         1 OKF       0.119500
     38 H39          4.4020     9.6900    15.6910 ha         1 OKF       0.121500
     39 H40          6.2000     6.0780    23.6420 hc         1 OKF       0.026367
     40 H42          4.8520     7.2260    23.7310 hc         1 OKF       0.026367
     41 H41          4.5560     5.5370    23.2820 hc         1 OKF       0.026367
     42 H43          3.5180     9.9340    13.3820 ha         1 OKF       0.101500
     43 H44          0.2580     4.1270    19.7160 ha         1 OKF       0.098500
     44 H45         -0.7170     7.3280    16.9960 ha         1 OKF       0.098500
     45 H46          2.4560     5.7500    13.3390 ha         1 OKF       0.101500
     46 H47         -1.4330     5.3920    18.3930 ha         1 OKF       0.095000
     47 H48          2.5390     7.9680    12.2020 ha         1 OKF       0.095000
@<TRIPOS>BOND
     1     1     2 1   
     2     1     5 1   
     3     1     6 1   
     4     2     3 2   
     5     2    10 1   
     6     3     4 1   
     7     3    11 1   
     8     4     5 ar  
     9     4    12 ar  
    10     5     8 ar  
    11     6     7 1   
    12     6    28 1   
    13     6    29 1   
    14     7     9 1   
    15     7    30 1   
    16     7    31 1   
    17     8    14 ar  
    18     8    32 1   
    19     9    13 1   
    20     9    16 1   
    21    10    17 ar  
    22    10    20 ar  
    23    11    18 ar  
    24    11    19 ar  
    25    12    15 ar  
    26    12    33 1   
    27    14    15 ar  
    28    14    34 1   
    29    15    21 1   
    30    17    25 ar  
    31    17    35 1   
    32    18    23 ar  
    33    18    36 1   
    34    19    24 ar  
    35    19    37 1   
    36    20    22 ar  
    37    20    38 1   
    38    21    39 1   
    39    21    40 1   
    40    21    41 1   
    41    22    27 ar  
    42    22    42 1   
    43    23    26 ar  
    44    23    43 1   
    45    24    26 ar  
    46    24    44 1   
    47    25    27 ar  
    48    25    45 1   
    49    26    46 1   
    50    27    47 1   
@<TRIPOS>SUBSTRUCTURE
     1 OKF         1 TEMP              0 ****  ****    0 ROOT
