@<TRIPOS>MOLECULE
OKF
   47    50     1     0     0
SMALL
bcc


@<TRIPOS>ATOM
      1 N1           5.6850     7.8300    17.6500 na         1 OKF      -0.018400
      2 C2           4.4340     7.4520    17.2220 cc         1 OKF       0.059700
      3 C3           3.7210     6.9210    18.2750 cd         1 OKF      -0.119400
      4 C4           4.5830     6.9720    19.4170 ca         1 OKF      -0.072800
      5 C5           5.7930     7.5430    18.9850 ca         1 OKF      -0.031200
      6 C6           6.8220     8.2080    16.8290 c3         1 OKF       0.058300
      7 C7           7.8330     7.0780    16.6580 c3         1 OKF      -0.234400
      8 C8           6.8520     7.7600    19.8670 ca         1 OKF      -0.120000
      9 C9           7.2190     5.8790    15.9090 c          1 OKF       0.923600
     10 C10          3.9720     7.6420    15.8420 ca         1 OKF      -0.025800
     11 C11          2.3310     6.4550    18.2600 ca         1 OKF       0.025200
     12 C12          4.4270     6.6300    20.7670 ca         1 OKF      -0.085000
     13 O13          6.9770     4.8530    16.5750 o          1 OKF      -0.832300
     14 C14          6.6720     7.4010    21.1870 ca         1 OKF      -0.131000
     15 C15          5.4680     6.8360    21.6540 ca         1 OKF      -0.122300
     16 O16          6.9990     6.0560    14.6940 o          1 OKF      -0.832300
     17 C17          3.4850     6.5560    15.1150 ca         1 OKF      -0.087000
     18 C18          1.9850     5.2510    18.8780 ca         1 OKF      -0.125000
     19 C19          1.3170     7.1970    17.6480 ca         1 OKF      -0.125000
     20 C20          3.9580     8.9080    15.2560 ca         1 OKF      -0.087000
     21 C21          5.3350     6.4720    23.1060 c3         1 OKF      -0.030800
     22 C22          3.4740     9.0820    13.9670 ca         1 OKF      -0.136500
     23 C23          0.6720     4.8020    18.8840 ca         1 OKF      -0.136500
     24 C24          0.0050     6.7450    17.6480 ca         1 OKF      -0.136500
     25 C25          2.9950     6.7320    13.8300 ca         1 OKF      -0.136500
     26 C26         -0.3250     5.5460    18.2670 ca         1 OKF      -0.152000
     27 C27          2.9900     7.9950    13.2520 ca         1 OKF      -0.128000
     28 H29          6.4560     8.5240    15.8540 h1         1 OKF       0.042700
     29 H28          7.2950     9.0800    17.2860 h1         1 OKF       0.042700
     30 H31          8.6710     7.4840    16.0840 hc         1 OKF       0.031200
     31 H30          8.2260     6.7810    17.6320 hc         1 OKF       0.031200
     32 H32          7.7850     8.2000    19.5410 ha         1 OKF       0.130000
     33 H33          3.4940     6.2050    21.1190 ha         1 OKF       0.121000
     34 H34          7.4830     7.5610    21.8890 ha         1 OKF       0.111000
     35 H36          3.4990     5.5690    15.5590 ha         1 OKF       0.139500
     36 H37          2.7560     4.6500    19.3450 ha         1 OKF       0.137500
     37 H38          1.5560     8.1420    17.1780 ha         1 OKF       0.137500
     38 H39          4.3120     9.7650    15.8160 ha         1 OKF       0.139500
     39 H40          6.1060     5.7620    23.4120 hc         1 OKF       0.026367
     40 H42          5.4370     7.3480    23.7500 hc         1 OKF       0.026367
     41 H41          4.3660     6.0190    23.3170 hc         1 OKF       0.026367
     42 H43          3.4670    10.0700    13.5260 ha         1 OKF       0.119500
     43 H44          0.4290     3.8640    19.3680 ha         1 OKF       0.116500
     44 H45         -0.7640     7.3370    17.1690 ha         1 OKF       0.116500
     45 H46          2.6220     5.8800    13.2770 ha         1 OKF       0.119500
     46 H47         -1.3490     5.1960    18.2700 ha         1 OKF       0.113000
     47 H48          2.6090     8.1320    12.2480 ha         1 OKF       0.113000
@<TRIPOS>BOND
     1     1     2 1   
     2     1     5 1   
     3     1     6 1   
     4     2     3 2   
     5     2    10 1   
     6     3     4 1   
     7     3    11 1   
     8     4     5 ar  
     9     4    12 ar  
    10     5     8 ar  
    11     6     7 1   
    12     6    28 1   
    13     6    29 1   
    14     7     9 1   
    15     7    30 1   
    16     7    31 1   
    17     8    14 ar  
    18     8    32 1   
    19     9    13 1   
    20     9    16 1   
    21    10    17 ar  
    22    10    20 ar  
    23    11    18 ar  
    24    11    19 ar  
    25    12    15 ar  
    26    12    33 1   
    27    14    15 ar  
    28    14    34 1   
    29    15    21 1   
    30    17    25 ar  
    31    17    35 1   
    32    18    23 ar  
    33    18    36 1   
    34    19    24 ar  
    35    19    37 1   
    36    20    22 ar  
    37    20    38 1   
    38    21    39 1   
    39    21    40 1   
    40    21    41 1   
    41    22    27 ar  
    42    22    42 1   
    43    23    26 ar  
    44    23    43 1   
    45    24    26 ar  
    46    24    44 1   
    47    25    27 ar  
    48    25    45 1   
    49    26    46 1   
    50    27    47 1   
@<TRIPOS>SUBSTRUCTURE
     1 OKF         1 TEMP              0 ****  ****    0 ROOT
