@<TRIPOS>MOLECULE
OKG
   13    12     1     0     0
SMALL
abcg2


@<TRIPOS>ATOM
      1 O4          -3.3040    -0.6430     0.6040 o          1 OKG      -0.768000
      2 C5          -2.4330     0.0530     0.0430 c          1 OKG       0.712000
      3 O3          -2.6220     1.1350    -0.5490 o          1 OKG      -0.768000
      4 C4          -1.0010    -0.5090     0.0570 c3         1 OKG      -0.189400
      5 C3           0.0900     0.5340    -0.1400 c3         1 OKG      -0.138400
      6 C2           1.4710    -0.0760    -0.2240 c          1 OKG       0.561100
      7 O5           1.7210    -1.0500    -0.9120 o          1 OKG      -0.597000
      8 O2           3.6630     0.1070     0.4760 o          1 OKG      -0.693000
      9 O1           2.3290     0.5780     0.5070 os         1 OKG      -0.248100
     10 H2          -0.8390    -1.0550     0.9910 hc         1 OKG       0.023700
     11 H3          -0.9300    -1.2600    -0.7380 hc         1 OKG       0.023700
     12 H4          -0.0950     1.0740    -1.0730 hc         1 OKG       0.040700
     13 H5           0.0530     1.2800     0.6550 hc         1 OKG       0.040700
@<TRIPOS>BOND
     1     1     2 1   
     2     2     3 1   
     3     2     4 1   
     4     4     5 1   
     5     4    10 1   
     6     4    11 1   
     7     5     6 1   
     8     5    12 1   
     9     5    13 1   
    10     6     7 2   
    11     6     9 1   
    12     8     9 1   
@<TRIPOS>SUBSTRUCTURE
     1 OKG         1 TEMP              0 ****  ****    0 ROOT
