@<TRIPOS>MOLECULE
OKG
   13    12     1     0     0
SMALL
No Charge or Current Charge


@<TRIPOS>ATOM
      1 O4          -2.8370     0.1930     1.2040 o          1 OKG      -0.768000
      2 C5          -2.4190    -0.0060     0.0730 c          1 OKG       0.712000
      3 O3          -3.0570     0.2550    -0.9350 o          1 OKG      -0.768000
      4 C4          -0.9880    -0.5520    -0.0890 c3         1 OKG      -0.189400
      5 C3           0.0390     0.6120    -0.1620 c3         1 OKG      -0.138400
      6 C2           1.4810     0.0970    -0.3160 c          1 OKG       0.561100
      7 O5           1.9790    -0.2080    -1.3970 o          1 OKG      -0.597000
      8 O2           3.6130    -0.4490     0.9110 o          1 OKG      -0.693000
      9 O1           2.1450     0.0370     0.9060 os         1 OKG      -0.248100
     10 H2          -0.7040    -1.1470     0.7870 hc         1 OKG       0.023700
     11 H3          -0.8930    -1.0950    -1.0380 hc         1 OKG       0.023700
     12 H4          -0.2100     1.2500    -1.0180 hc         1 OKG       0.040700
     13 H5          -0.0450     1.1800     0.7720 hc         1 OKG       0.040700
@<TRIPOS>BOND
     1     1     2 1   
     2     2     3 1   
     3     2     4 1   
     4     4     5 1   
     5     4    10 1   
     6     4    11 1   
     7     5     6 1   
     8     5    12 1   
     9     5    13 1   
    10     6     7 2   
    11     6     9 1   
    12     8     9 1   
@<TRIPOS>SUBSTRUCTURE
     1 OKG         1 TEMP              0 ****  ****    0 ROOT
