@<TRIPOS>MOLECULE
OKH
   66    70     1     0     0
SMALL
abcg2


@<TRIPOS>ATOM
      1 C1          -3.1520    -2.1740     2.4590 ca         1 OKH      -0.091000
      2 C2          -3.4760    -0.8350     2.1720 ca         1 OKH      -0.112600
      3 C3          -2.7230    -0.1150     1.2560 ca         1 OKH      -0.091000
      4 C4          -2.0910    -2.8120     1.8520 ca         1 OKH      -0.101000
      5 C5          -1.3320    -2.0910     0.9300 ca         1 OKH       0.038400
      6 C6          -1.6600    -0.7600     0.6340 ca         1 OKH      -0.074200
      7 N7          -0.7320    -0.3670    -0.3150 na         1 OKH      -0.182600
      8 C8           0.0950    -1.4450    -0.5060 cc         1 OKH       0.401400
      9 N9          -0.2330    -2.4830     0.2090 nd         1 OKH      -0.561100
     10 C10          1.2590    -1.4270    -1.4040 ca         1 OKH      -0.082900
     11 C11         -0.4670     0.9890    -0.7850 c3         1 OKH       0.025300
     12 C12          0.1670     1.7400     0.3940 c          1 OKH       0.581100
     13 C13         -1.6790     1.6920    -1.3890 c6         1 OKH      -0.064700
     14 O14         -0.5080     2.3110     1.2340 o          1 OKH      -0.559100
     15 N15          1.5040     1.6480     0.4390 ns         1 OKH      -0.508900
     16 C16          2.3050     2.0500     1.5810 c6         1 OKH       0.114700
     17 C17         -4.6550    -0.1650     2.8680 c          1 OKH       0.710600
     18 O18         -5.3060    -0.8670     3.6660 o          1 OKH      -0.716000
     19 O19         -4.8720     1.0280     2.5800 o          1 OKH      -0.716000
     20 C20          2.5170    -1.7180    -0.8810 ca         1 OKH      -0.084500
     21 C21          3.6370    -1.7290    -1.6970 ca         1 OKH      -0.114000
     22 C22          3.4900    -1.4540    -3.0480 ca         1 OKH       0.116000
     23 C23          2.2460    -1.1730    -3.5930 ca         1 OKH      -0.114000
     24 C24          1.1340    -1.1610    -2.7660 ca         1 OKH      -0.084500
     25 C25         -1.2540     3.0370    -1.9840 c6         1 OKH      -0.069400
     26 C26         -2.4420     3.7650    -2.6060 c6         1 OKH      -0.074400
     27 C27         -3.1430     2.9050    -3.6520 c6         1 OKH      -0.073400
     28 C28         -3.5460     1.5540    -3.0730 c6         1 OKH      -0.074400
     29 C29         -2.3480     0.8340    -2.4630 c6         1 OKH      -0.069400
     30 C30          3.7260     2.3650     1.1250 c6         1 OKH      -0.091900
     31 C31          4.6080     2.7600     2.3050 c6         1 OKH      -0.071400
     32 C32          4.6030     1.6890     3.3910 c6         1 OKH      -0.076400
     33 C33          3.1820     1.3710     3.8440 c6         1 OKH      -0.071400
     34 C34          2.3020     0.9710     2.6640 c6         1 OKH      -0.091900
     35 CL35         4.8830    -1.4630    -4.0720 cl         1 OKH      -0.218000
     36 H1          -3.7560    -2.7100     3.1780 ha         1 OKH       0.133000
     37 H3          -2.9730     0.9160     1.0600 ha         1 OKH       0.149000
     38 H4          -1.8440    -3.8410     2.0840 ha         1 OKH       0.105000
     39 H11          0.2770     0.8970    -1.5780 h1         1 OKH       0.053700
     40 H13         -2.4130     1.8930    -0.6050 hc         1 OKH       0.101700
     41 HN15         1.9780     1.1420    -0.2940 hn         1 OKH       0.306500
     42 H16          1.8640     2.9640     1.9910 h1         1 OKH       0.074700
     43 H20          2.6280    -1.9330     0.1740 ha         1 OKH       0.133500
     44 H21          4.6100    -1.9500    -1.2810 ha         1 OKH       0.125500
     45 H23          2.1380    -0.9740    -4.6500 ha         1 OKH       0.125500
     46 H24          0.1620    -0.9580    -3.1990 ha         1 OKH       0.133500
     47 H25         -0.7940     3.6700    -1.2220 hc         1 OKH       0.039450
     48 H25A        -0.4890     2.8620    -2.7510 hc         1 OKH       0.039450
     49 H26         -3.1520     4.0290    -1.8160 hc         1 OKH       0.044200
     50 H26A        -2.1070     4.7050    -3.0500 hc         1 OKH       0.044200
     51 H27         -4.0180     3.4270    -4.0450 hc         1 OKH       0.029200
     52 H27A        -2.4670     2.7460    -4.5000 hc         1 OKH       0.029200
     53 H28         -4.3090     1.7010    -2.3010 hc         1 OKH       0.044200
     54 H28A        -4.0010     0.9290    -3.8440 hc         1 OKH       0.044200
     55 H29         -1.6210     0.6210    -3.2560 hc         1 OKH       0.039450
     56 H29A        -2.6570    -0.1290    -2.0520 hc         1 OKH       0.039450
     57 H30          4.1530     1.4800     0.6360 hc         1 OKH       0.048450
     58 H30A         3.7070     3.1620     0.3770 hc         1 OKH       0.048450
     59 H31          5.6250     2.9450     1.9560 hc         1 OKH       0.039700
     60 H31A         4.2480     3.7050     2.7240 hc         1 OKH       0.039700
     61 H32          5.0730     0.7780     3.0040 hc         1 OKH       0.034200
     62 H32A         5.2080     2.0140     4.2420 hc         1 OKH       0.034200
     63 H33          3.1880     0.5720     4.5890 hc         1 OKH       0.039700
     64 H33A         2.7530     2.2500     4.3360 hc         1 OKH       0.039700
     65 H34          1.2780     0.7840     2.9950 hc         1 OKH       0.048450
     66 H34A         2.6700     0.0340     2.2320 hc         1 OKH       0.048450
@<TRIPOS>BOND
     1     1     2 ar  
     2     1     4 ar  
     3     1    36 1   
     4     2     3 ar  
     5     2    17 1   
     6     3     6 ar  
     7     3    37 1   
     8     4     5 ar  
     9     4    38 1   
    10     5     6 ar  
    11     5     9 1   
    12     6     7 1   
    13     7     8 1   
    14     7    11 1   
    15     8     9 2   
    16     8    10 1   
    17    10    20 ar  
    18    10    24 ar  
    19    11    12 1   
    20    11    13 1   
    21    11    39 1   
    22    12    14 2   
    23    12    15 1   
    24    13    25 1   
    25    13    29 1   
    26    13    40 1   
    27    15    16 1   
    28    15    41 1   
    29    16    30 1   
    30    16    34 1   
    31    16    42 1   
    32    17    18 1   
    33    17    19 1   
    34    20    21 ar  
    35    20    43 1   
    36    21    22 ar  
    37    21    44 1   
    38    22    23 ar  
    39    22    35 1   
    40    23    24 ar  
    41    23    45 1   
    42    24    46 1   
    43    25    26 1   
    44    25    47 1   
    45    25    48 1   
    46    26    27 1   
    47    26    49 1   
    48    26    50 1   
    49    27    28 1   
    50    27    51 1   
    51    27    52 1   
    52    28    29 1   
    53    28    53 1   
    54    28    54 1   
    55    29    55 1   
    56    29    56 1   
    57    30    31 1   
    58    30    57 1   
    59    30    58 1   
    60    31    32 1   
    61    31    59 1   
    62    31    60 1   
    63    32    33 1   
    64    32    61 1   
    65    32    62 1   
    66    33    34 1   
    67    33    63 1   
    68    33    64 1   
    69    34    65 1   
    70    34    66 1   
@<TRIPOS>SUBSTRUCTURE
     1 OKH         1 TEMP              0 ****  ****    0 ROOT
