@<TRIPOS>MOLECULE
OKH
   66    70     1     0     0
SMALL
No Charge or Current Charge


@<TRIPOS>ATOM
      1 C1          -3.2580    -2.3880     2.3980 ca         1 OKH      -0.091000
      2 C2          -3.5400    -1.0090     2.1900 ca         1 OKH      -0.112600
      3 C3          -2.7420    -0.2790     1.2700 ca         1 OKH      -0.091000
      4 C4          -2.2030    -3.0230     1.7120 ca         1 OKH      -0.101000
      5 C5          -1.4410    -2.2720     0.8100 ca         1 OKH       0.038400
      6 C6          -1.7080    -0.9500     0.5920 ca         1 OKH      -0.074200
      7 N7          -0.7890    -0.5180    -0.3350 na         1 OKH      -0.182600
      8 C8           0.0260    -1.6280    -0.6320 cc         1 OKH       0.401400
      9 N9          -0.3570    -2.7140     0.0670 nd         1 OKH      -0.561100
     10 C10          1.2150    -1.6040    -1.4970 ca         1 OKH      -0.082900
     11 C11         -0.5360     0.9160    -0.6560 c3         1 OKH       0.025300
     12 C12          0.0870     1.6430     0.5600 c          1 OKH       0.581100
     13 C13         -1.6960     1.7110    -1.3610 c6         1 OKH      -0.064700
     14 O14         -0.5720     2.2250     1.4110 o          1 OKH      -0.559100
     15 N15          1.4660     1.6100     0.6030 ns         1 OKH      -0.508900
     16 C16          2.2990     2.1730     1.6670 c6         1 OKH       0.114700
     17 C17         -4.6750    -0.3280     2.9410 c          1 OKH       0.710600
     18 O18         -5.2960    -0.9730     3.7740 o          1 OKH      -0.716000
     19 O19         -4.9300     0.8410     2.6840 o          1 OKH      -0.716000
     20 C20          2.3850    -2.2850    -1.0950 ca         1 OKH      -0.084500
     21 C21          3.5230    -2.3040    -1.9220 ca         1 OKH      -0.114000
     22 C22          3.4930    -1.6640    -3.1700 ca         1 OKH       0.116000
     23 C23          2.3240    -1.0180    -3.5990 ca         1 OKH      -0.114000
     24 C24          1.1870    -0.9990    -2.7730 ca         1 OKH      -0.084500
     25 C25         -1.1680     3.0370    -1.9860 c6         1 OKH      -0.069400
     26 C26         -2.3070     3.8490    -2.6510 c6         1 OKH      -0.074400
     27 C27         -3.0490     3.0060    -3.7150 c6         1 OKH      -0.073400
     28 C28         -3.5820     1.6880    -3.1060 c6         1 OKH      -0.074400
     29 C29         -2.4430     0.8750    -2.4450 c6         1 OKH      -0.069400
     30 C30          3.7270     2.4490     1.1300 c6         1 OKH      -0.091900
     31 C31          4.6520     3.0060     2.2410 c6         1 OKH      -0.071400
     32 C32          4.7080     2.0450     3.4530 c6         1 OKH      -0.076400
     33 C33          3.2890     1.7420     3.9910 c6         1 OKH      -0.071400
     34 C34          2.3710     1.1950     2.8700 c6         1 OKH      -0.091900
     35 Cl35         4.9150    -1.6890    -4.2050 cl         1 OKH      -0.218000
     36 H1          -3.8530    -2.9690     3.0990 ha         1 OKH       0.133000
     37 H3          -2.9300     0.7760     1.1100 ha         1 OKH       0.149000
     38 H4          -1.9840    -4.0740     1.8820 ha         1 OKH       0.105000
     39 H11          0.2660     0.9170    -1.4000 h1         1 OKH       0.053700
     40 H13         -2.4240     1.9820    -0.5870 hc         1 OKH       0.101700
     41 HN15         1.9310     1.1110    -0.1460 hn         1 OKH       0.306500
     42 H16          1.8540     3.1240     2.0000 h1         1 OKH       0.074700
     43 H20          2.4180    -2.7890    -0.1310 ha         1 OKH       0.133500
     44 H21          4.4240    -2.8170    -1.5960 ha         1 OKH       0.125500
     45 H23          2.2960    -0.5410    -4.5750 ha         1 OKH       0.125500
     46 H24          0.2800    -0.5230    -3.1350 ha         1 OKH       0.133500
     47 H25         -0.6890     3.6570    -1.2160 hc         1 OKH       0.039450
     48 H25A        -0.3930     2.8160    -2.7330 hc         1 OKH       0.039450
     49 H26         -3.0180     4.1880    -1.8840 hc         1 OKH       0.044200
     50 H26A        -1.8950     4.7560    -3.1160 hc         1 OKH       0.044200
     51 H27         -3.8810     3.5860    -4.1370 hc         1 OKH       0.029200
     52 H27A        -2.3700     2.7810    -4.5490 hc         1 OKH       0.029200
     53 H28         -4.3590     1.9110    -2.3610 hc         1 OKH       0.044200
     54 H28A        -4.0650     1.0850    -3.8880 hc         1 OKH       0.044200
     55 H29         -1.7380     0.5470    -3.2200 hc         1 OKH       0.039450
     56 H29A        -2.8680    -0.0360    -2.0020 hc         1 OKH       0.039450
     57 H30          4.1600     1.5250     0.7210 hc         1 OKH       0.048450
     58 H30A         3.6790     3.1660     0.2990 hc         1 OKH       0.048450
     59 H31          5.6640     3.1610     1.8410 hc         1 OKH       0.039700
     60 H31A         4.2900     3.9910     2.5650 hc         1 OKH       0.039700
     61 H32          5.2000     1.1070     3.1590 hc         1 OKH       0.034200
     62 H32A         5.3240     2.4840     4.2500 hc         1 OKH       0.034200
     63 H33          3.3490     1.0150     4.8130 hc         1 OKH       0.039700
     64 H33A         2.8500     2.6560     4.4150 hc         1 OKH       0.039700
     65 H34          1.3630     1.0230     3.2720 hc         1 OKH       0.048450
     66 H34A         2.7420     0.2170     2.5340 hc         1 OKH       0.048450
@<TRIPOS>BOND
     1     1     2 ar  
     2     1     4 ar  
     3     1    36 1   
     4     2     3 ar  
     5     2    17 1   
     6     3     6 ar  
     7     3    37 1   
     8     4     5 ar  
     9     4    38 1   
    10     5     6 ar  
    11     5     9 1   
    12     6     7 1   
    13     7     8 1   
    14     7    11 1   
    15     8     9 2   
    16     8    10 1   
    17    10    20 ar  
    18    10    24 ar  
    19    11    12 1   
    20    11    13 1   
    21    11    39 1   
    22    12    14 2   
    23    12    15 1   
    24    13    25 1   
    25    13    29 1   
    26    13    40 1   
    27    15    16 1   
    28    15    41 1   
    29    16    30 1   
    30    16    34 1   
    31    16    42 1   
    32    17    18 1   
    33    17    19 1   
    34    20    21 ar  
    35    20    43 1   
    36    21    22 ar  
    37    21    44 1   
    38    22    23 ar  
    39    22    35 1   
    40    23    24 ar  
    41    23    45 1   
    42    24    46 1   
    43    25    26 1   
    44    25    47 1   
    45    25    48 1   
    46    26    27 1   
    47    26    49 1   
    48    26    50 1   
    49    27    28 1   
    50    27    51 1   
    51    27    52 1   
    52    28    29 1   
    53    28    53 1   
    54    28    54 1   
    55    29    55 1   
    56    29    56 1   
    57    30    31 1   
    58    30    57 1   
    59    30    58 1   
    60    31    32 1   
    61    31    59 1   
    62    31    60 1   
    63    32    33 1   
    64    32    61 1   
    65    32    62 1   
    66    33    34 1   
    67    33    63 1   
    68    33    64 1   
    69    34    65 1   
    70    34    66 1   
@<TRIPOS>SUBSTRUCTURE
     1 OKH         1 TEMP              0 ****  ****    0 ROOT
