@<TRIPOS>MOLECULE
OKI
   64    68     1     0     0
SMALL
No Charge or Current Charge


@<TRIPOS>ATOM
      1 C1           0.5880     1.6380    -0.2960 cc         1 OKI       0.450400
      2 N2           1.3760     0.5130     0.0160 na         1 OKI      -0.174600
      3 N3           0.8930     2.6840     0.4960 nd         1 OKI      -0.555100
      4 C4           0.4300    -1.6930     0.7000 c          1 OKI       0.587100
      5 C5           1.1650    -0.9010    -0.4070 c3         1 OKI       0.013300
      6 C6           2.1970     0.8920     1.0500 ca         1 OKI      -0.062200
      7 C7           1.9020     2.2020     1.3180 ca         1 OKI       0.061400
      8 N8          -0.9470    -1.6640     0.6080 ns         1 OKI      -0.498900
      9 C9          -0.5110     1.6630    -1.2710 ca         1 OKI      -0.114900
     10 O10          1.0050    -2.3170     1.5820 o          1 OKI      -0.584100
     11 C11          2.3960    -1.6530    -1.0350 c6         1 OKI      -0.060700
     12 C12         -1.7190     2.3180    -0.9460 ca         1 OKI      -0.079000
     13 C13         -0.3560     1.1310    -2.5710 ca         1 OKI      -0.079000
     14 C14         -2.6180     1.8150    -3.1500 ca         1 OKI       0.127000
     15 C15         -1.8770    -2.2810     1.5560 c6         1 OKI       0.108700
     16 C16         -2.7720     2.3830    -1.8770 ca         1 OKI      -0.110500
     17 C17         -1.4090     1.1960    -3.5000 ca         1 OKI      -0.110500
     18 Cl18        -3.9330     1.8980    -4.3140 cl         1 OKI      -0.194000
     19 C19          3.1640     0.1850     1.7880 ca         1 OKI      -0.093000
     20 C20          2.5690     2.9030     2.3330 ca         1 OKI      -0.053000
     21 C21          3.2350    -0.7590    -1.9970 c6         1 OKI      -0.073400
     22 C22          1.9460    -2.9490    -1.7730 c6         1 OKI      -0.073400
     23 C23         -3.2420    -2.5380     0.8660 c6         1 OKI      -0.090400
     24 C24         -2.0780    -1.3610     2.7890 c6         1 OKI      -0.090400
     25 C25          3.8480     0.8710     2.8120 ca         1 OKI      -0.097000
     26 C26          3.5550     2.2270     3.0820 ca         1 OKI      -0.131000
     27 C27          3.1530    -3.7200    -2.3640 c6         1 OKI      -0.072400
     28 C28          4.4430    -1.5300    -2.5830 c6         1 OKI      -0.072400
     29 C29         -3.0980    -1.9640     3.7860 c6         1 OKI      -0.071900
     30 C30         -4.2680    -3.1500     1.8510 c6         1 OKI      -0.071900
     31 C31          3.9860    -2.8200    -3.3070 c6         1 OKI      -0.076400
     32 C32         -4.4540    -2.2470     3.0950 c6         1 OKI      -0.077400
     33 H5           0.4410    -0.8640    -1.2260 h1         1 OKI       0.068700
     34 HN8         -1.3390    -1.1290    -0.1580 hn         1 OKI       0.310500
     35 H11          3.0480    -1.9590    -0.2090 hc         1 OKI       0.076700
     36 H12         -1.8500     2.7660     0.0370 ha         1 OKI       0.131500
     37 H13          0.5840     0.6780    -2.8710 ha         1 OKI       0.131500
     38 H15         -1.4590    -3.2440     1.8870 h1         1 OKI       0.081700
     39 H16         -3.7040     2.8750    -1.6110 ha         1 OKI       0.134500
     40 H17         -1.2840     0.7760    -4.4950 ha         1 OKI       0.134500
     41 H19          3.3860    -0.8590     1.6000 ha         1 OKI       0.130000
     42 H20          2.3280     3.9430     2.5390 ha         1 OKI       0.128000
     43 H21          2.6060    -0.3960    -2.8200 hc         1 OKI       0.043450
     44 H21A         3.6050     0.1310    -1.4700 hc         1 OKI       0.043450
     45 H22          1.4010    -3.6110    -1.0860 hc         1 OKI       0.043450
     46 H22A         1.2440    -2.6960    -2.5810 hc         1 OKI       0.043450
     47 H23         -3.6400    -1.5980     0.4580 hc         1 OKI       0.045200
     48 H23A        -3.1040    -3.2150     0.0110 hc         1 OKI       0.045200
     49 H24         -1.1170    -1.2030     3.2980 hc         1 OKI       0.045200
     50 H24A        -2.4230    -0.3690     2.4630 hc         1 OKI       0.045200
     51 H25          4.6030     0.3530     3.4000 ha         1 OKI       0.113000
     52 H26          4.0850     2.7500     3.8750 ha         1 OKI       0.114000
     53 H27          3.7890    -4.0920    -1.5490 hc         1 OKI       0.042950
     54 H27A         2.7990    -4.6040    -2.9100 hc         1 OKI       0.042950
     55 H28          4.9920    -0.8860    -3.2830 hc         1 OKI       0.042950
     56 H28A         5.1450    -1.7860    -1.7780 hc         1 OKI       0.042950
     57 H29         -2.6960    -2.8950     4.2090 hc         1 OKI       0.043950
     58 H29A        -3.2470    -1.2760     4.6300 hc         1 OKI       0.043950
     59 H30         -5.2330    -3.2910     1.3450 hc         1 OKI       0.043950
     60 H30A        -3.9320    -4.1480     2.1650 hc         1 OKI       0.043950
     61 H31          4.8620    -3.3720    -3.6730 hc         1 OKI       0.039700
     62 H31A         3.3890    -2.5570    -4.1910 hc         1 OKI       0.039700
     63 H32         -5.1430    -2.7260     3.8050 hc         1 OKI       0.040700
     64 H32A        -4.9230    -1.2990     2.7970 hc         1 OKI       0.040700
@<TRIPOS>BOND
     1     1     2 1   
     2     1     3 2   
     3     1     9 1   
     4     2     5 1   
     5     2     6 1   
     6     3     7 1   
     7     4     5 1   
     8     4     8 1   
     9     4    10 2   
    10     5    11 1   
    11     5    33 1   
    12     6     7 ar  
    13     6    19 ar  
    14     7    20 ar  
    15     8    15 1   
    16     8    34 1   
    17     9    12 ar  
    18     9    13 ar  
    19    11    21 1   
    20    11    22 1   
    21    11    35 1   
    22    12    16 ar  
    23    12    36 1   
    24    13    17 ar  
    25    13    37 1   
    26    14    16 ar  
    27    14    17 ar  
    28    14    18 1   
    29    15    23 1   
    30    15    24 1   
    31    15    38 1   
    32    16    39 1   
    33    17    40 1   
    34    19    25 ar  
    35    19    41 1   
    36    20    26 ar  
    37    20    42 1   
    38    21    28 1   
    39    21    43 1   
    40    21    44 1   
    41    22    27 1   
    42    22    45 1   
    43    22    46 1   
    44    23    30 1   
    45    23    47 1   
    46    23    48 1   
    47    24    29 1   
    48    24    49 1   
    49    24    50 1   
    50    25    26 ar  
    51    25    51 1   
    52    26    52 1   
    53    27    31 1   
    54    27    53 1   
    55    27    54 1   
    56    28    31 1   
    57    28    55 1   
    58    28    56 1   
    59    29    32 1   
    60    29    57 1   
    61    29    58 1   
    62    30    32 1   
    63    30    59 1   
    64    30    60 1   
    65    31    61 1   
    66    31    62 1   
    67    32    63 1   
    68    32    64 1   
@<TRIPOS>SUBSTRUCTURE
     1 OKI         1 TEMP              0 ****  ****    0 ROOT
