@<TRIPOS>MOLECULE
OKI
   64    68     1     0     0
SMALL
abcg2


@<TRIPOS>ATOM
      1 C1           0.6520     1.5690    -0.1310 cc         1 OKI       0.450400
      2 N2           1.4310     0.4590     0.0750 na         1 OKI      -0.174600
      3 N3           0.9960     2.5860     0.6050 nd         1 OKI      -0.555100
      4 C4           0.3960    -1.6290     0.6640 c          1 OKI       0.587100
      5 C5           1.1390    -0.8730    -0.4430 c3         1 OKI       0.013300
      6 C6           2.3420     0.8050     1.0540 ca         1 OKI      -0.062200
      7 C7           2.0570     2.1460     1.3550 ca         1 OKI       0.061400
      8 N8          -0.9350    -1.6490     0.5090 ns         1 OKI      -0.498900
      9 C9          -0.4830     1.6000    -1.0660 ca         1 OKI      -0.114900
     10 O10          0.9890    -2.1150     1.6140 o          1 OKI      -0.584100
     11 C11          2.3520    -1.6240    -0.9870 c6         1 OKI      -0.060700
     12 C12         -1.7510     1.9020    -0.5750 ca         1 OKI      -0.079000
     13 C13         -0.3210     1.3660    -2.4300 ca         1 OKI      -0.079000
     14 C14         -2.6610     1.7110    -2.7760 ca         1 OKI       0.127000
     15 C15         -1.8760    -2.1360     1.5020 c6         1 OKI       0.108700
     16 C16         -2.8450     1.9550    -1.4240 ca         1 OKI      -0.110500
     17 C17         -1.4060     1.4210    -3.2900 ca         1 OKI      -0.110500
     18 CL18        -4.0210     1.7730    -3.8430 cl         1 OKI      -0.194000
     19 C19          3.3670     0.1170     1.7010 ca         1 OKI      -0.093000
     20 C20          2.8090     2.8380     2.3040 ca         1 OKI      -0.053000
     21 C21          3.1490    -0.7630    -1.9650 c6         1 OKI      -0.073400
     22 C22          1.8880    -2.9170    -1.6610 c6         1 OKI      -0.073400
     23 C23         -3.0350    -2.8550     0.8180 c6         1 OKI      -0.090400
     24 C24         -2.3820    -0.9950     2.3840 c6         1 OKI      -0.090400
     25 C25          4.1030     0.8180     2.6390 ca         1 OKI      -0.097000
     26 C26          3.8320     2.1610     2.9390 ca         1 OKI      -0.131000
     27 C27          3.0620    -3.6870    -2.2570 c6         1 OKI      -0.072400
     28 C28          4.3230    -1.5340    -2.5600 c6         1 OKI      -0.072400
     29 C29         -3.3910    -1.4990     3.4110 c6         1 OKI      -0.071900
     30 C30         -4.0470    -3.3550     1.8450 c6         1 OKI      -0.071900
     31 C31          3.8620    -2.8250    -3.2250 c6         1 OKI      -0.076400
     32 C32         -4.5500    -2.2230     2.7350 c6         1 OKI      -0.077400
     33 H5           0.4590    -0.7300    -1.2840 h1         1 OKI       0.068700
     34 HN8         -1.3290    -1.1970    -0.3020 hn         1 OKI       0.310500
     35 H11          3.0080    -1.9070    -0.1590 hc         1 OKI       0.076700
     36 H12         -1.8900     2.0910     0.4820 ha         1 OKI       0.131500
     37 H13          0.6600     1.1530    -2.8370 ha         1 OKI       0.131500
     38 H15         -1.3440    -2.8560     2.1300 h1         1 OKI       0.081700
     39 H16         -3.8260     2.1850    -1.0330 ha         1 OKI       0.134500
     40 H17         -1.2690     1.2450    -4.3480 ha         1 OKI       0.134500
     41 H19          3.5870    -0.9200     1.5030 ha         1 OKI       0.130000
     42 H20          2.5890     3.8730     2.5340 ha         1 OKI       0.128000
     43 H21          2.4930    -0.4300    -2.7790 hc         1 OKI       0.043450
     44 H21A         3.5120     0.1410    -1.4710 hc         1 OKI       0.043450
     45 H22          1.3600    -3.5540    -0.9460 hc         1 OKI       0.043450
     46 H22A         1.1680    -2.6790    -2.4520 hc         1 OKI       0.043450
     47 H23         -3.5320    -2.1670     0.1240 hc         1 OKI       0.045200
     48 H23A        -2.6530    -3.6880     0.2220 hc         1 OKI       0.045200
     49 H24         -1.5360    -0.5100     2.8770 hc         1 OKI       0.045200
     50 H24A        -2.8560    -0.2380     1.7480 hc         1 OKI       0.045200
     51 H25          4.9070     0.3120     3.1560 ha         1 OKI       0.113000
     52 H26          4.4320     2.6700     3.6820 ha         1 OKI       0.114000
     53 H27          3.7140    -4.0310    -1.4470 hc         1 OKI       0.042950
     54 H27A         2.6960    -4.5850    -2.7610 hc         1 OKI       0.042950
     55 H28          4.8510    -0.9020    -3.2770 hc         1 OKI       0.042950
     56 H28A         5.0430    -1.7650    -1.7660 hc         1 OKI       0.042950
     57 H29         -2.8900    -2.1800     4.1080 hc         1 OKI       0.043950
     58 H29A        -3.7600    -0.6610     4.0080 hc         1 OKI       0.043950
     59 H30         -4.8830    -3.8370     1.3330 hc         1 OKI       0.043950
     60 H30A        -3.5760    -4.1240     2.4660 hc         1 OKI       0.043950
     61 H31          4.7210    -3.3820    -3.6070 hc         1 OKI       0.039700
     62 H31A         3.2390    -2.5800    -4.0920 hc         1 OKI       0.039700
     63 H32         -5.2420    -2.6140     3.4840 hc         1 OKI       0.040700
     64 H32A        -5.1170    -1.5100     2.1270 hc         1 OKI       0.040700
@<TRIPOS>BOND
     1     1     2 1   
     2     1     3 2   
     3     1     9 1   
     4     2     5 1   
     5     2     6 1   
     6     3     7 1   
     7     4     5 1   
     8     4     8 1   
     9     4    10 2   
    10     5    11 1   
    11     5    33 1   
    12     6     7 ar  
    13     6    19 ar  
    14     7    20 ar  
    15     8    15 1   
    16     8    34 1   
    17     9    12 ar  
    18     9    13 ar  
    19    11    21 1   
    20    11    22 1   
    21    11    35 1   
    22    12    16 ar  
    23    12    36 1   
    24    13    17 ar  
    25    13    37 1   
    26    14    16 ar  
    27    14    17 ar  
    28    14    18 1   
    29    15    23 1   
    30    15    24 1   
    31    15    38 1   
    32    16    39 1   
    33    17    40 1   
    34    19    25 ar  
    35    19    41 1   
    36    20    26 ar  
    37    20    42 1   
    38    21    28 1   
    39    21    43 1   
    40    21    44 1   
    41    22    27 1   
    42    22    45 1   
    43    22    46 1   
    44    23    30 1   
    45    23    47 1   
    46    23    48 1   
    47    24    29 1   
    48    24    49 1   
    49    24    50 1   
    50    25    26 ar  
    51    25    51 1   
    52    26    52 1   
    53    27    31 1   
    54    27    53 1   
    55    27    54 1   
    56    28    31 1   
    57    28    55 1   
    58    28    56 1   
    59    29    32 1   
    60    29    57 1   
    61    29    58 1   
    62    30    32 1   
    63    30    59 1   
    64    30    60 1   
    65    31    61 1   
    66    31    62 1   
    67    32    63 1   
    68    32    64 1   
@<TRIPOS>SUBSTRUCTURE
     1 OKI         1 TEMP              0 ****  ****    0 ROOT
