@<TRIPOS>MOLECULE
OKJ
   27    27     1     0     0
SMALL
No Charge or Current Charge


@<TRIPOS>ATOM
      1 C1           2.9090    -0.0790     0.5220 c3         1 OKJ       0.012300
      2 O1           3.1260     1.2100     1.1610 oh         1 OKJ      -0.644000
      3 O2           4.7800     0.5190    -0.9440 o          1 OKJ      -0.507100
      4 C2           3.9620    -0.3280    -0.5930 c          1 OKJ       0.534900
      5 C3           1.4470    -0.1920    -0.0280 c3         1 OKJ       0.165500
      6 C4           0.3650     0.1660     1.0360 c3         1 OKJ      -0.011100
      7 C5          -1.0690     0.1280     0.5050 ca         1 OKJ      -0.102300
      8 C6          -1.5090     1.1030    -0.4130 ca         1 OKJ      -0.062000
      9 C7          -2.8300     1.0780    -0.8930 ca         1 OKJ      -0.175000
     10 C8          -3.7180     0.0840    -0.4590 ca         1 OKJ       0.135100
     11 O3          -4.9970     0.0690    -0.9290 oh         1 OKJ      -0.536100
     12 C9          -3.2890    -0.8890     0.4580 ca         1 OKJ      -0.175000
     13 C10         -1.9680    -0.8670     0.9400 ca         1 OKJ      -0.062000
     14 N1           1.1750    -1.5460    -0.5810 n8         1 OKJ      -1.008200
     15 H3           1.3420     0.5290    -0.8520 h1         1 OKJ       0.069700
     16 H4           0.4740    -0.5070     1.8950 hc         1 OKJ       0.056700
     17 H5           0.5590     1.1730     1.4230 hc         1 OKJ       0.056700
     18 H6          -0.8280     1.8810    -0.7520 ha         1 OKJ       0.109500
     19 H7          -3.1640     1.8330    -1.6010 ha         1 OKJ       0.118000
     20 H8          -5.4680    -0.6890    -0.5210 ho         1 OKJ       0.462000
     21 H9          -3.9710    -1.6630     0.8020 ha         1 OKJ       0.118000
     22 H10         -1.6430    -1.6240     1.6500 ha         1 OKJ       0.109500
     23 H11          1.8010    -1.7540    -1.3670 hn         1 OKJ       0.400500
     24 H41          3.8860     1.6370     0.6970 ho         1 OKJ       0.467000
     25 H43          3.0530    -0.8790     1.2600 h1         1 OKJ       0.067700
     26 H12          1.3940    -2.2620     0.1210 hn         1 OKJ       0.400500
     27 H42          3.9500    -1.3390    -1.0590 h4         1 OKJ      -0.002800
@<TRIPOS>BOND
     1     1     2 1   
     2     1     4 1   
     3     1     5 1   
     4     1    25 1   
     5     2    24 1   
     6     3     4 2   
     7     4    27 1   
     8     5     6 1   
     9     5    14 1   
    10     5    15 1   
    11     6     7 1   
    12     6    16 1   
    13     6    17 1   
    14     7     8 ar  
    15     7    13 ar  
    16     8     9 ar  
    17     8    18 1   
    18     9    10 ar  
    19     9    19 1   
    20    10    11 1   
    21    10    12 ar  
    22    11    20 1   
    23    12    13 ar  
    24    12    21 1   
    25    13    22 1   
    26    14    23 1   
    27    14    26 1   
@<TRIPOS>SUBSTRUCTURE
     1 OKJ         1 TEMP              0 ****  ****    0 ROOT
