@<TRIPOS>MOLECULE
OKJ
   27    27     1     0     0
SMALL
bcc


@<TRIPOS>ATOM
      1 C1           2.8590    -0.0320     0.5050 c3         1 OKJ      -0.010900
      2 O1           3.0640     1.2620     0.9870 oh         1 OKJ      -0.581800
      3 O2           4.6750     0.4360    -0.9570 o          1 OKJ      -0.507100
      4 C2           3.8630    -0.3660    -0.5630 c          1 OKJ       0.534900
      5 C3           1.4150    -0.2420    -0.0290 c3         1 OKJ       0.165500
      6 C4           0.4000     0.1990     1.0320 c3         1 OKJ      -0.011100
      7 C5          -1.0130     0.1580     0.5250 ca         1 OKJ      -0.102300
      8 C6          -1.5160     1.1830    -0.2740 ca         1 OKJ      -0.080000
      9 C7          -2.8110     1.1530    -0.7680 ca         1 OKJ      -0.193000
     10 C8          -3.6450     0.0810    -0.4630 ca         1 OKJ       0.135100
     11 O3          -4.9010     0.0920    -0.9610 oh         1 OKJ      -0.497100
     12 C9          -3.1630    -0.9490     0.3390 ca         1 OKJ      -0.193000
     13 C10         -1.8610    -0.9040     0.8170 ca         1 OKJ      -0.080000
     14 N1           1.1350    -1.6070    -0.4210 n8         1 OKJ      -0.897800
     15 H3           1.2870     0.3950    -0.9120 h1         1 OKJ       0.069700
     16 H4           0.4980    -0.4570     1.9040 hc         1 OKJ       0.056700
     17 H5           0.6440     1.2070     1.3670 hc         1 OKJ       0.056700
     18 H6          -0.8830     2.0290    -0.5200 ha         1 OKJ       0.127500
     19 H7          -3.1790     1.9640    -1.3850 ha         1 OKJ       0.136000
     20 H8          -5.3840    -0.6860    -0.6620 ho         1 OKJ       0.423000
     21 H9          -3.8010    -1.7890     0.5920 ha         1 OKJ       0.136000
     22 H10         -1.5040    -1.7170     1.4380 ha         1 OKJ       0.127500
     23 H11          1.6810    -1.8990    -1.2200 hn         1 OKJ       0.345300
     24 H41          3.7350     1.6840     0.4330 ho         1 OKJ       0.428000
     25 H43          3.0100    -0.7690     1.3120 h1         1 OKJ       0.067700
     26 H12          1.3390    -2.2490     0.3350 hn         1 OKJ       0.345300
     27 H42          3.8250    -1.3860    -0.9730 h4         1 OKJ      -0.002800
@<TRIPOS>BOND
     1     1     2 1   
     2     1     4 1   
     3     1     5 1   
     4     1    25 1   
     5     2    24 1   
     6     3     4 2   
     7     4    27 1   
     8     5     6 1   
     9     5    14 1   
    10     5    15 1   
    11     6     7 1   
    12     6    16 1   
    13     6    17 1   
    14     7     8 ar  
    15     7    13 ar  
    16     8     9 ar  
    17     8    18 1   
    18     9    10 ar  
    19     9    19 1   
    20    10    11 1   
    21    10    12 ar  
    22    11    20 1   
    23    12    13 ar  
    24    12    21 1   
    25    13    22 1   
    26    14    23 1   
    27    14    26 1   
@<TRIPOS>SUBSTRUCTURE
     1 OKJ         1 TEMP              0 ****  ****    0 ROOT
