@<TRIPOS>MOLECULE
OKL
   30    31     1     0     0
SMALL
No Charge or Current Charge


@<TRIPOS>ATOM
      1 C10        115.2400   116.8790   154.8690 c          1 OKL       0.638600
      2 C12        114.3300   117.5780   155.7720 cc         1 OKL      -0.343600
      3 C13        114.0070   118.8860   155.5760 cd         1 OKL       0.442900
      4 C15        112.9320   118.2750   157.3360 cc         1 OKL       0.529500
      5 C01        116.1010   124.0350   152.9610 c3         1 OKL      -0.094100
      6 C02        114.6970   124.0770   153.5990 c3         1 OKL      -0.076400
      7 C03        114.6240   123.4790   155.0270 c3         1 OKL      -0.069400
      8 C04        115.0290   121.9890   155.1510 c3         1 OKL      -0.095400
      9 C07        115.4040   118.9750   153.6200 c          1 OKL       0.626000
     10 N06        114.5270   119.6030   154.5220 n          1 OKL      -0.361300
     11 N09        115.6930   117.6670   153.8620 ns         1 OKL      -0.473500
     12 N14        113.1340   119.3200   156.5490 nd         1 OKL      -0.684000
     13 N16        113.6390   117.1840   156.9060 na         1 OKL      -0.247500
     14 O08        115.9010   119.5470   152.6640 o          1 OKL      -0.547000
     15 O11        115.5690   115.7120   154.9880 o          1 OKL      -0.526000
     16 Cl17       111.9070   118.2650   158.7360 cl         1 OKL      -0.081000
     17 H1         116.0960   124.5560   151.9970 hc         1 OKL       0.035367
     18 H2         116.8380   124.5240   153.6100 hc         1 OKL       0.035367
     19 H3         116.4240   123.0020   152.7840 hc         1 OKL       0.035367
     20 H4         114.3700   125.1230   153.6470 hc         1 OKL       0.035700
     21 H5         113.9850   123.5640   152.9420 hc         1 OKL       0.035700
     22 H6         115.2660   124.0720   155.6900 hc         1 OKL       0.041700
     23 H7         113.6000   123.5990   155.4040 hc         1 OKL       0.041700
     24 H8         114.9600   121.7010   156.2070 hc         1 OKL       0.052200
     25 H9         116.0810   121.8660   154.8680 hc         1 OKL       0.052200
     26 H10        114.2410   121.2770   153.2520 h1         1 OKL       0.073700
     27 H11        113.1050   121.1610   154.5930 h1         1 OKL       0.073700
     28 H12        116.3240   117.2280   153.2110 hn         1 OKL       0.346500
     29 H14        113.6360   116.2740   157.3530 hn         1 OKL       0.387000
     30 C05        114.1590   121.0230   154.3170 c3         1 OKL       0.114000
@<TRIPOS>BOND
     1     1     2 1   
     2     1    11 1   
     3     1    15 2   
     4     2     3 2   
     5     2    13 1   
     6     3    10 1   
     7     3    12 1   
     8     4    12 2   
     9     4    13 1   
    10     4    16 1   
    11     5     6 1   
    12     5    17 1   
    13     5    18 1   
    14     5    19 1   
    15     6     7 1   
    16     6    20 1   
    17     6    21 1   
    18     7     8 1   
    19     7    22 1   
    20     7    23 1   
    21     8    24 1   
    22     8    25 1   
    23     8    30 1   
    24     9    10 1   
    25     9    11 1   
    26     9    14 2   
    27    10    30 1   
    28    11    28 1   
    29    13    29 1   
    30    26    30 1   
    31    27    30 1   
@<TRIPOS>SUBSTRUCTURE
     1 OKL         1 TEMP              0 ****  ****    0 ROOT
