@<TRIPOS>MOLECULE
OKL
   30    31     1     0     0
SMALL
bcc


@<TRIPOS>ATOM
      1 C10        115.2500   116.8970   154.9170 c          1 OKL       0.781100
      2 C12        114.3290   117.6050   155.7450 cc         1 OKL      -0.358200
      3 C13        114.0040   118.9200   155.5340 cd         1 OKL       0.508200
      4 C15        112.9140   118.3170   157.2160 cc         1 OKL       0.529500
      5 C01        115.9990   123.9020   152.9270 c3         1 OKL      -0.094100
      6 C02        114.6680   124.0350   153.6540 c3         1 OKL      -0.076400
      7 C03        114.6700   123.4430   155.0640 c3         1 OKL      -0.069400
      8 C04        115.0790   121.9760   155.1580 c3         1 OKL      -0.095400
      9 C07        115.4420   119.0680   153.6690 c          1 OKL       0.835500
     10 N06        114.5220   119.6530   154.5050 n          1 OKL      -0.428300
     11 N09        115.7310   117.7380   153.9210 ns         1 OKL      -0.607500
     12 N14        113.1230   119.3640   156.4530 nd         1 OKL      -0.684000
     13 N16        113.6030   117.2330   156.8500 na         1 OKL      -0.247900
     14 O08        115.9770   119.6620   152.7550 o          1 OKL      -0.622500
     15 O11        115.6050   115.7400   155.0160 o          1 OKL      -0.601500
     16 CL17       111.8760   118.3100   158.5520 cl         1 OKL      -0.081000
     17 H1         115.9750   124.4190   151.9670 hc         1 OKL       0.035367
     18 H2         116.8140   124.3320   153.5130 hc         1 OKL       0.035367
     19 H3         116.2530   122.8600   152.7270 hc         1 OKL       0.035367
     20 H4         114.4010   125.0920   153.7290 hc         1 OKL       0.035700
     21 H5         113.8770   123.5760   153.0530 hc         1 OKL       0.035700
     22 H6         115.3500   124.0260   155.6910 hc         1 OKL       0.041700
     23 H7         113.6740   123.5660   155.5010 hc         1 OKL       0.041700
     24 H8         115.0470   121.6680   156.2060 hc         1 OKL       0.052200
     25 H9         116.1130   121.8470   154.8300 hc         1 OKL       0.052200
     26 H10        114.2190   121.2950   153.2840 h1         1 OKL       0.073700
     27 H11        113.1350   121.1790   154.6540 h1         1 OKL       0.073700
     28 H12        116.4060   117.3320   153.2850 hn         1 OKL       0.346500
     29 H14        113.5900   116.3250   157.2930 hn         1 OKL       0.336700
     30 C05        114.1730   121.0620   154.3450 c3         1 OKL       0.114000
@<TRIPOS>BOND
     1     1     2 1   
     2     1    11 1   
     3     1    15 2   
     4     2     3 2   
     5     2    13 1   
     6     3    10 1   
     7     3    12 1   
     8     4    12 2   
     9     4    13 1   
    10     4    16 1   
    11     5     6 1   
    12     5    17 1   
    13     5    18 1   
    14     5    19 1   
    15     6     7 1   
    16     6    20 1   
    17     6    21 1   
    18     7     8 1   
    19     7    22 1   
    20     7    23 1   
    21     8    24 1   
    22     8    25 1   
    23     8    30 1   
    24     9    10 1   
    25     9    11 1   
    26     9    14 2   
    27    10    30 1   
    28    11    28 1   
    29    13    29 1   
    30    26    30 1   
    31    27    30 1   
@<TRIPOS>SUBSTRUCTURE
     1 OKL         1 TEMP              0 ****  ****    0 ROOT
