@<TRIPOS>MOLECULE
OKM
   29    29     1     0     0
SMALL
No Charge or Current Charge


@<TRIPOS>ATOM
      1 C13        -15.4920     2.0500    -7.4110 c3         1 OKM      -0.109100
      2 C01         -8.7120     1.1250    -1.9550 c3         1 OKM      -0.114100
      3 C02         -9.5190     2.4220    -2.1220 c3         1 OKM       0.240800
      4 C04        -11.5820     3.1320    -3.4540 ca         1 OKM       0.446900
      5 N05        -11.5070     4.3790    -2.9660 nb         1 OKM      -0.322000
      6 C06        -12.4670     5.2010    -3.4160 ca         1 OKM       0.420300
      7 O07        -12.4610     6.4770    -2.9740 oh         1 OKM      -0.622300
      8 N08        -13.4410     4.8720    -4.2730 nb         1 OKM      -0.406000
      9 C09        -13.4050     3.5990    -4.6810 ca         1 OKM       0.458900
     10 N10        -12.5010     2.6790    -4.3130 nb         1 OKM      -0.374000
     11 N11        -14.3960     3.2400    -5.5690 nu         1 OKM      -0.920100
     12 C12        -14.6880     1.9030    -6.1050 c3         1 OKM       0.245500
     13 C14        -15.4450     1.0670    -5.0530 c3         1 OKM      -0.109100
     14 H1         -15.6980     1.0650    -7.8450 hc         1 OKM       0.043533
     15 H2         -16.4500     2.5520    -7.2310 hc         1 OKM       0.043533
     16 H3         -14.9270     2.6320    -8.1490 hc         1 OKM       0.043533
     17 H4          -7.8790     1.2870    -1.2610 hc         1 OKM       0.044367
     18 H5          -9.3420     0.3230    -1.5500 hc         1 OKM       0.044367
     19 H6          -8.2980     0.7960    -2.9160 hc         1 OKM       0.044367
     20 H7          -8.8550     3.2130    -2.5020 h1         1 OKM       0.057700
     21 H8          -9.8960     2.7420    -1.1410 h1         1 OKM       0.057700
     22 H9         -10.7480     1.2790    -3.4580 hn         1 OKM       0.506000
     23 H11        -15.0440     3.9910    -5.8000 hn         1 OKM       0.503000
     24 H12        -13.7490     1.3860    -6.3540 h1         1 OKM       0.079700
     25 H13        -14.8440     0.9470    -4.1440 hc         1 OKM       0.043533
     26 H14        -16.3930     1.5450    -4.7790 hc         1 OKM       0.043533
     27 H15        -15.6650     0.0680    -5.4450 hc         1 OKM       0.043533
     28 H10        -13.2260     6.9070    -3.4100 ho         1 OKM       0.487000
     29 N03        -10.6380     2.2080    -3.0520 nu         1 OKM      -0.921100
@<TRIPOS>BOND
     1     1    12 1   
     2     1    14 1   
     3     1    15 1   
     4     1    16 1   
     5     2     3 1   
     6     2    17 1   
     7     2    18 1   
     8     2    19 1   
     9     3    20 1   
    10     3    21 1   
    11     3    29 1   
    12     4     5 ar  
    13     4    10 ar  
    14     4    29 1   
    15     5     6 ar  
    16     6     7 1   
    17     6     8 ar  
    18     7    28 1   
    19     8     9 ar  
    20     9    10 ar  
    21     9    11 1   
    22    11    12 1   
    23    11    23 1   
    24    12    13 1   
    25    12    24 1   
    26    13    25 1   
    27    13    26 1   
    28    13    27 1   
    29    22    29 1   
@<TRIPOS>SUBSTRUCTURE
     1 OKM         1 TEMP              0 ****  ****    0 ROOT
