@<TRIPOS>MOLECULE
OKM
   29    29     1     0     0
SMALL
abcg2


@<TRIPOS>ATOM
      1 C13        -15.3530     2.0180    -7.4050 c3         1 OKM      -0.109100
      2 C01         -8.7050     1.1960    -2.0340 c3         1 OKM      -0.114100
      3 C02         -9.5790     2.4310    -2.1710 c3         1 OKM       0.240800
      4 C04        -11.6010     3.0650    -3.4580 ca         1 OKM       0.446900
      5 N05        -11.4900     4.3190    -2.9740 nb         1 OKM      -0.322000
      6 C06        -12.4350     5.1420    -3.4120 ca         1 OKM       0.420300
      7 O07        -12.3490     6.3980    -2.9460 oh         1 OKM      -0.622300
      8 N08        -13.4280     4.8640    -4.2390 nb         1 OKM      -0.406000
      9 C09        -13.4480     3.5740    -4.6670 ca         1 OKM       0.458900
     10 N10        -12.5640     2.6430    -4.3000 nb         1 OKM      -0.374000
     11 N11        -14.4260     3.2510    -5.5270 nu         1 OKM      -0.920100
     12 C12        -14.6940     1.9070    -6.0360 c3         1 OKM       0.245500
     13 C14        -15.5440     1.1020    -5.0530 c3         1 OKM      -0.109100
     14 H1         -15.5440     1.0240    -7.8100 hc         1 OKM       0.043533
     15 H2         -16.3100     2.5420    -7.3320 hc         1 OKM       0.043533
     16 H3         -14.7150     2.5620    -8.1040 hc         1 OKM       0.043533
     17 H4          -7.8790     1.3990    -1.3510 hc         1 OKM       0.044367
     18 H5          -9.2760     0.3540    -1.6370 hc         1 OKM       0.044367
     19 H6          -8.2860     0.9040    -3.0000 hc         1 OKM       0.044367
     20 H7          -8.9960     3.2700    -2.5560 h1         1 OKM       0.057700
     21 H8          -9.9680     2.7320    -1.1940 h1         1 OKM       0.057700
     22 H9         -10.8030     1.2290    -3.4400 hn         1 OKM       0.506000
     23 H11        -15.1070     3.9730    -5.7090 hn         1 OKM       0.503000
     24 H12        -13.7260     1.4180    -6.1440 h1         1 OKM       0.079700
     25 H13        -15.0520     1.0370    -4.0820 hc         1 OKM       0.043533
     26 H14        -16.5200     1.5740    -4.9180 hc         1 OKM       0.043533
     27 H15        -15.7010     0.0880    -5.4290 hc         1 OKM       0.043533
     28 H10        -13.0810     6.9100    -3.3240 ho         1 OKM       0.487000
     29 N03        -10.6880     2.1620    -3.0770 nu         1 OKM      -0.921100
@<TRIPOS>BOND
     1     1    12 1   
     2     1    14 1   
     3     1    15 1   
     4     1    16 1   
     5     2     3 1   
     6     2    17 1   
     7     2    18 1   
     8     2    19 1   
     9     3    20 1   
    10     3    21 1   
    11     3    29 1   
    12     4     5 ar  
    13     4    10 ar  
    14     4    29 1   
    15     5     6 ar  
    16     6     7 1   
    17     6     8 ar  
    18     7    28 1   
    19     8     9 ar  
    20     9    10 ar  
    21     9    11 1   
    22    11    12 1   
    23    11    23 1   
    24    12    13 1   
    25    12    24 1   
    26    13    25 1   
    27    13    26 1   
    28    13    27 1   
    29    22    29 1   
@<TRIPOS>SUBSTRUCTURE
     1 OKM         1 TEMP              0 ****  ****    0 ROOT
