@<TRIPOS>MOLECULE
OKO
   64    68     1     0     0
SMALL
bcc


@<TRIPOS>ATOM
      1 O2           5.2670     0.0300    -1.9690 o          1 OKO      -0.598300
      2 S            5.8990     1.1400    -1.2780 s6         1 OKO       1.218900
      3 O1           7.3460     1.1930    -1.1630 o          1 OKO      -0.598300
      4 C6           5.3240     2.6530    -2.0120 c3         1 OKO      -0.266300
      5 N1           5.3260     1.1280     0.2870 nu         1 OKO      -0.666500
      6 C5           3.9350     1.0550     0.5090 ca         1 OKO      -0.046700
      7 C1           3.1960     2.1950     0.8800 ca         1 OKO       0.630600
      8 O            3.8700     3.3340     0.9990 os         1 OKO      -0.456100
      9 C            3.1540     4.5080     1.3680 c3         1 OKO       0.138700
     10 C4           3.2530    -0.1340     0.3760 ca         1 OKO      -0.027000
     11 C3           1.8730    -0.1830     0.5930 cp         1 OKO      -0.179300
     12 C2           1.2600     1.0030     0.9700 ca         1 OKO       0.461200
     13 N            1.9060     2.1560     1.1140 nb         1 OKO      -0.744000
     14 C7           1.1110    -1.4380     0.4520 cp         1 OKO       0.000000
     15 C23          1.6810    -2.6430     0.8150 ca         1 OKO      -0.117000
     16 C22          0.9080    -3.7940     0.6510 ca         1 OKO      -0.047200
     17 N5           1.1810    -5.0910     0.9120 na         1 OKO      -0.009100
     18 N4           0.1590    -5.8930     0.6190 nc         1 OKO      -0.514100
     19 C21         -0.8050    -5.1330     0.1620 cd         1 OKO       0.372800
     20 C20         -0.4050    -3.7700     0.1510 ca         1 OKO      -0.196900
     21 C9          -0.9740    -2.5340    -0.2130 ca         1 OKO      -0.053500
     22 C8          -0.2060    -1.3960    -0.0610 ca         1 OKO      -0.125000
     23 C10         -2.3260    -2.4760    -0.7360 cc         1 OKO       0.541900
     24 O4          -2.8410    -1.2850    -1.0720 os         1 OKO      -0.324800
     25 C12         -4.1040    -1.5340    -1.4990 cc         1 OKO       0.148700
     26 C11         -4.2940    -2.8680    -1.4030 cd         1 OKO       0.230900
     27 N2          -3.1490    -3.4550    -0.9170 nd         1 OKO      -0.669000
     28 C13         -4.9400    -0.3960    -1.9500 c3         1 OKO       0.149500
     29 N3          -5.0480     0.6320    -0.9360 n3         1 OKO      -0.715600
     30 C19         -5.6160     1.8550    -1.4680 c6         1 OKO       0.129800
     31 C17         -5.6310     2.9330    -0.3960 c6         1 OKO       0.149100
     32 C18         -6.2680     4.2150    -0.8880 c3         1 OKO      -0.088600
     33 O3          -6.3480     2.4860     0.7390 os         1 OKO      -0.412600
     34 C15         -5.8210     1.2900     1.2800 c6         1 OKO       0.149100
     35 C16         -6.6650     0.9030     2.4760 c3         1 OKO      -0.088600
     36 C14         -5.7950     0.1940     0.2270 c6         1 OKO       0.129800
     37 H61C         4.2370     2.6800    -1.9870 h1         1 OKO       0.103367
     38 H62C         5.7400     3.4970    -1.4680 h1         1 OKO       0.103367
     39 H63C         5.6650     2.6690    -3.0460 h1         1 OKO       0.103367
     40 H1           5.8230     1.7900     0.8760 hn         1 OKO       0.444800
     41 H4           3.7980    -1.0250     0.0950 ha         1 OKO       0.170000
     42 HC1          2.3690     4.7410     0.6480 h1         1 OKO       0.052033
     43 HC2          2.7070     4.4100     2.3570 h1         1 OKO       0.052033
     44 HC3          3.8860     5.3090     1.3780 h1         1 OKO       0.052033
     45 H2           0.1980     1.0300     1.1850 h4         1 OKO       0.032100
     46 H23          2.6790    -2.6970     1.2300 ha         1 OKO       0.144000
     47 H8          -0.6080    -0.4380    -0.3610 ha         1 OKO       0.148000
     48 H5           2.0340    -5.4810     1.2810 hn         1 OKO       0.328700
     49 H21         -1.7460    -5.5570    -0.1460 h4         1 OKO       0.071800
     50 H11         -5.1760    -3.4370    -1.6480 h4         1 OKO       0.048100
     51 H131        -4.4920     0.0510    -2.8450 h1         1 OKO       0.053700
     52 H132        -5.9160    -0.8010    -2.2610 h1         1 OKO       0.053700
     53 H191        -5.0070     2.1950    -2.3100 h1         1 OKO       0.042950
     54 H192        -6.6430     1.7040    -1.8480 h1         1 OKO       0.042950
     55 H141        -6.8300    -0.0870    -0.0370 h1         1 OKO       0.042950
     56 H142        -5.3220    -0.6920     0.6570 h1         1 OKO       0.042950
     57 H17         -4.5870     3.1340    -0.1090 h1         1 OKO       0.044700
     58 H181        -7.3030     4.0550    -1.1940 hc         1 OKO       0.044700
     59 H182        -6.2520     4.9830    -0.1150 hc         1 OKO       0.044700
     60 H183        -5.7170     4.5980    -1.7480 hc         1 OKO       0.044700
     61 H15         -4.7840     1.4650     1.6080 h1         1 OKO       0.044700
     62 H161        -7.6980     0.7060     2.1830 hc         1 OKO       0.044700
     63 H162        -6.2690     0.0010     2.9420 hc         1 OKO       0.044700
     64 H163        -6.6670     1.6930     3.2280 hc         1 OKO       0.044700
@<TRIPOS>BOND
     1     1     2 2   
     2     2     3 2   
     3     2     4 1   
     4     2     5 1   
     5     4    37 1   
     6     4    38 1   
     7     4    39 1   
     8     5     6 1   
     9     5    40 1   
    10     6     7 ar  
    11     6    10 ar  
    12     7     8 1   
    13     7    13 ar  
    14     8     9 1   
    15     9    42 1   
    16     9    43 1   
    17     9    44 1   
    18    10    11 ar  
    19    10    41 1   
    20    11    12 ar  
    21    11    14 1   
    22    12    13 ar  
    23    12    45 1   
    24    14    15 ar  
    25    14    22 ar  
    26    15    16 ar  
    27    15    46 1   
    28    16    17 1   
    29    16    20 ar  
    30    17    18 1   
    31    17    48 1   
    32    18    19 2   
    33    19    20 1   
    34    19    49 1   
    35    20    21 ar  
    36    21    22 ar  
    37    21    23 1   
    38    22    47 1   
    39    23    24 1   
    40    23    27 2   
    41    24    25 1   
    42    25    26 2   
    43    25    28 1   
    44    26    27 1   
    45    26    50 1   
    46    28    29 1   
    47    28    51 1   
    48    28    52 1   
    49    29    30 1   
    50    29    36 1   
    51    30    31 1   
    52    30    53 1   
    53    30    54 1   
    54    31    32 1   
    55    31    33 1   
    56    31    57 1   
    57    32    58 1   
    58    32    59 1   
    59    32    60 1   
    60    33    34 1   
    61    34    35 1   
    62    34    36 1   
    63    34    61 1   
    64    35    62 1   
    65    35    63 1   
    66    35    64 1   
    67    36    55 1   
    68    36    56 1   
@<TRIPOS>SUBSTRUCTURE
     1 OKO         1 TEMP              0 ****  ****    0 ROOT
