@<TRIPOS>MOLECULE
OKO
   64    68     1     0     0
SMALL
No Charge or Current Charge


@<TRIPOS>ATOM
      1 O2           6.5170    -0.9320    -0.5940 o          1 OKO      -0.527500
      2 S            6.6410     0.4940    -0.9000 s6         1 OKO       1.188100
      3 O1           7.9480     1.1500    -0.8880 o          1 OKO      -0.527500
      4 C6           5.8340     0.8450    -2.4470 c3         1 OKO      -0.377100
      5 N1           5.7440     1.3060     0.2380 nu         1 OKO      -0.860100
      6 C5           4.3440     1.2730     0.4720 ca         1 OKO       0.157000
      7 C1           3.6400     2.4410     0.9050 ca         1 OKO       0.565300
      8 O            4.3660     3.6060     1.0760 os         1 OKO      -0.479300
      9 C            3.7360     4.8280     1.5110 c3         1 OKO       0.161900
     10 C4           3.5900     0.0940     0.3000 ca         1 OKO      -0.009000
     11 C3           2.1940     0.0990     0.5410 cp         1 OKO      -0.114000
     12 C2           1.6130     1.3220     0.9580 ca         1 OKO       0.395900
     13 N            2.3080     2.4660     1.1390 nb         1 OKO      -0.744000
     14 C7           1.3670    -1.1370     0.3670 cp         1 OKO       0.000000
     15 C23          1.8970    -2.4170     0.6810 ca         1 OKO      -0.099000
     16 C22          1.0840    -3.5410     0.5030 ca         1 OKO      -0.047200
     17 N5           1.3710    -4.8720     0.7420 na         1 OKO      -0.059400
     18 N4           0.2610    -5.6740     0.4280 nc         1 OKO      -0.514100
     19 C21         -0.6800    -4.8110     0.0050 cd         1 OKO       0.372800
     20 C20         -0.1900    -3.4460     0.0420 ca         1 OKO      -0.196900
     21 C9          -0.7850    -2.2110    -0.2920 ca         1 OKO      -0.053500
     22 C8           0.0260    -1.0580    -0.1170 ca         1 OKO      -0.107000
     23 C10         -2.1680    -2.1000    -0.7960 cc         1 OKO       0.497500
     24 O4          -2.6540    -0.8610    -1.0960 os         1 OKO      -0.236000
     25 C12         -3.9220    -1.1070    -1.5150 cc         1 OKO       0.104300
     26 C11         -4.1600    -2.4540    -1.4660 cd         1 OKO       0.230900
     27 N2          -3.0260    -3.0920    -1.0020 nd         1 OKO      -0.669000
     28 C13         -4.8090     0.0390    -1.9380 c3         1 OKO       0.149500
     29 N3          -5.3020     0.8750    -0.8120 n3         1 OKO      -0.715600
     30 C19         -6.0190     2.1030    -1.2760 c6         1 OKO       0.129800
     31 C17         -6.5030     2.9800    -0.0780 c6         1 OKO       0.172300
     32 C18         -7.3600     4.1850    -0.5330 c3         1 OKO      -0.088600
     33 O3          -7.3190     2.1910     0.8200 os         1 OKO      -0.459000
     34 C15         -6.6200     1.0390     1.3450 c6         1 OKO       0.172300
     35 C16         -7.5930     0.3130     2.3040 c3         1 OKO      -0.088600
     36 C14         -6.1380     0.1220     0.1770 c6         1 OKO       0.129800
     37 H61C         4.8160     0.4460    -2.3910 h1         1 OKO       0.103367
     38 H62C         5.8300     1.9310    -2.5800 h1         1 OKO       0.103367
     39 H63C         6.4100     0.3500    -3.2350 h1         1 OKO       0.103367
     40 H1           6.1980     2.2090     0.3330 hn         1 OKO       0.500000
     41 H4           4.0720    -0.8220    -0.0220 ha         1 OKO       0.152000
     42 HC1          2.9630     5.1460     0.8000 h1         1 OKO       0.052033
     43 HC2          3.2700     4.7000     2.4970 h1         1 OKO       0.052033
     44 HC3          4.4760     5.6340     1.5890 h1         1 OKO       0.052033
     45 H2           0.5460     1.3810     1.1700 h4         1 OKO       0.032100
     46 H23          2.9070    -2.5290     1.0670 ha         1 OKO       0.126000
     47 H8          -0.3810    -0.0830    -0.3730 ha         1 OKO       0.130000
     48 H5           2.2470    -5.2570     1.0930 hn         1 OKO       0.379000
     49 H21         -1.6430    -5.2010    -0.2970 h4         1 OKO       0.071800
     50 H11         -5.0630    -2.9900    -1.7300 h4         1 OKO       0.048100
     51 H131        -4.2330     0.6610    -2.6360 h1         1 OKO       0.053700
     52 H132        -5.6570    -0.3700    -2.5030 h1         1 OKO       0.053700
     53 H191        -5.3600     2.7100    -1.9140 h1         1 OKO       0.042950
     54 H192        -6.8910     1.8240    -1.8860 h1         1 OKO       0.042950
     55 H141        -7.0180    -0.3100    -0.3230 h1         1 OKO       0.042950
     56 H142        -5.5670    -0.7150     0.6050 h1         1 OKO       0.042950
     57 H17         -5.6300     3.3570     0.4740 h1         1 OKO       0.044700
     58 H181        -8.2540     3.8560    -1.0750 hc         1 OKO       0.044700
     59 H182        -7.6850     4.7830     0.3260 hc         1 OKO       0.044700
     60 H183        -6.7870     4.8420    -1.1980 hc         1 OKO       0.044700
     61 H15         -5.7490     1.3840     1.9220 h1         1 OKO       0.044700
     62 H161        -8.4880    -0.0350     1.7760 hc         1 OKO       0.044700
     63 H162        -7.1120    -0.5600     2.7620 hc         1 OKO       0.044700
     64 H163        -7.9140     0.9780     3.1150 hc         1 OKO       0.044700
@<TRIPOS>BOND
     1     1     2 2   
     2     2     3 2   
     3     2     4 1   
     4     2     5 1   
     5     4    37 1   
     6     4    38 1   
     7     4    39 1   
     8     5     6 1   
     9     5    40 1   
    10     6     7 ar  
    11     6    10 ar  
    12     7     8 1   
    13     7    13 ar  
    14     8     9 1   
    15     9    42 1   
    16     9    43 1   
    17     9    44 1   
    18    10    11 ar  
    19    10    41 1   
    20    11    12 ar  
    21    11    14 1   
    22    12    13 ar  
    23    12    45 1   
    24    14    15 ar  
    25    14    22 ar  
    26    15    16 ar  
    27    15    46 1   
    28    16    17 1   
    29    16    20 ar  
    30    17    18 1   
    31    17    48 1   
    32    18    19 2   
    33    19    20 1   
    34    19    49 1   
    35    20    21 ar  
    36    21    22 ar  
    37    21    23 1   
    38    22    47 1   
    39    23    24 1   
    40    23    27 2   
    41    24    25 1   
    42    25    26 2   
    43    25    28 1   
    44    26    27 1   
    45    26    50 1   
    46    28    29 1   
    47    28    51 1   
    48    28    52 1   
    49    29    30 1   
    50    29    36 1   
    51    30    31 1   
    52    30    53 1   
    53    30    54 1   
    54    31    32 1   
    55    31    33 1   
    56    31    57 1   
    57    32    58 1   
    58    32    59 1   
    59    32    60 1   
    60    33    34 1   
    61    34    35 1   
    62    34    36 1   
    63    34    61 1   
    64    35    62 1   
    65    35    63 1   
    66    35    64 1   
    67    36    55 1   
    68    36    56 1   
@<TRIPOS>SUBSTRUCTURE
     1 OKO         1 TEMP              0 ****  ****    0 ROOT
