@<TRIPOS>MOLECULE
OKS
   30    29     1     0     0
SMALL
No Charge or Current Charge


@<TRIPOS>ATOM
      1 C02          5.4100    -0.3200     0.1220 c3         1 OKS       0.149800
      2 C03          4.0620     0.4300     0.1290 c3         1 OKS      -0.079400
      3 C04          2.8540    -0.5070    -0.0950 c3         1 OKS      -0.074400
      4 C05          1.5000     0.2380    -0.0900 c3         1 OKS      -0.074400
      5 C06          0.2940    -0.7000    -0.3130 c3         1 OKS      -0.076400
      6 C07         -1.0600     0.0450    -0.3090 c3         1 OKS      -0.066400
      7 C08         -2.2670    -0.8960    -0.5330 c3         1 OKS      -0.160400
      8 C09         -3.5950    -0.1280    -0.5220 c          1 OKS       0.597100
      9 N01          6.5430     0.5990     0.3350 n8         1 OKS      -0.995200
     10 N10         -4.3800    -0.3230     0.6090 ns         1 OKS      -0.382400
     11 O11         -5.7630     0.1080     0.6440 oh         1 OKS      -0.432100
     12 O12         -3.9450     0.5870    -1.4530 o          1 OKS      -0.564100
     13 H1           5.4160    -1.0780     0.9180 h1         1 OKS       0.025700
     14 H2           5.5460    -0.8280    -0.8430 h1         1 OKS       0.025700
     15 H3           3.9410     0.9500     1.0870 hc         1 OKS       0.046700
     16 H4           4.0720     1.1970    -0.6560 hc         1 OKS       0.046700
     17 H5           2.9750    -1.0280    -1.0530 hc         1 OKS       0.036200
     18 H6           2.8450    -1.2750     0.6880 hc         1 OKS       0.036200
     19 H7           1.3790     0.7590     0.8680 hc         1 OKS       0.041200
     20 H8           1.5100     1.0070    -0.8740 hc         1 OKS       0.041200
     21 H9           0.4150    -1.2200    -1.2720 hc         1 OKS       0.036200
     22 H10          0.2850    -1.4680     0.4700 hc         1 OKS       0.036200
     23 H11         -1.1820     0.5660     0.6490 hc         1 OKS       0.055700
     24 H12         -1.0500     0.8140    -1.0910 hc         1 OKS       0.055700
     25 H13         -2.1530    -1.3800    -1.5100 hc         1 OKS       0.058700
     26 H14         -2.2680    -1.6560     0.2570 hc         1 OKS       0.058700
     27 H15          6.4640     1.0130     1.2720 hn         1 OKS       0.391500
     28 H16          7.4110     0.0520     0.3860 hn         1 OKS       0.391500
     29 H18         -4.1150    -1.0420     1.2810 hn         1 OKS       0.326500
     30 H19         -5.8290     0.6090     1.4920 ho         1 OKS       0.449000
@<TRIPOS>BOND
     1     1     2 1   
     2     1     9 1   
     3     1    13 1   
     4     1    14 1   
     5     2     3 1   
     6     2    15 1   
     7     2    16 1   
     8     3     4 1   
     9     3    17 1   
    10     3    18 1   
    11     4     5 1   
    12     4    19 1   
    13     4    20 1   
    14     5     6 1   
    15     5    21 1   
    16     5    22 1   
    17     6     7 1   
    18     6    23 1   
    19     6    24 1   
    20     7     8 1   
    21     7    25 1   
    22     7    26 1   
    23     8    10 1   
    24     8    12 2   
    25     9    27 1   
    26     9    28 1   
    27    10    11 1   
    28    10    29 1   
    29    11    30 1   
@<TRIPOS>SUBSTRUCTURE
     1 OKS         1 TEMP              0 ****  ****    0 ROOT
