@<TRIPOS>MOLECULE
OKS
   30    29     1     0     0
SMALL
abcg2


@<TRIPOS>ATOM
      1 C02          5.3780    -0.3650     0.0340 c3         1 OKS       0.149800
      2 C03          4.0700     0.4110     0.0700 c3         1 OKS      -0.079400
      3 C04          2.8460    -0.4880    -0.0420 c3         1 OKS      -0.074400
      4 C05          1.5320     0.2810    -0.0080 c3         1 OKS      -0.074400
      5 C06          0.3090    -0.6200    -0.1240 c3         1 OKS      -0.076400
      6 C07         -1.0030     0.1530    -0.1160 c3         1 OKS      -0.066400
      7 C08         -2.2080    -0.7690    -0.2620 c3         1 OKS      -0.160400
      8 C09         -3.5160    -0.0190    -0.3620 c          1 OKS       0.597100
      9 N01          6.5220     0.5310     0.1410 n8         1 OKS      -0.995200
     10 N10         -4.5130    -0.5750     0.3590 ns         1 OKS      -0.382400
     11 O11         -5.7960    -0.1590     0.1590 oh         1 OKS      -0.432100
     12 O12         -3.6540     0.9980    -1.0180 o          1 OKS      -0.564100
     13 H1           5.3550    -1.1390     0.8150 h1         1 OKS       0.025700
     14 H2           5.4470    -0.8960    -0.9200 h1         1 OKS       0.025700
     15 H3           4.0150     0.9850     1.0030 hc         1 OKS       0.046700
     16 H4           4.0680     1.1450    -0.7420 hc         1 OKS       0.046700
     17 H5           2.9020    -1.0640    -0.9730 hc         1 OKS       0.036200
     18 H6           2.8560    -1.2240     0.7700 hc         1 OKS       0.036200
     19 H7           1.4730     0.8590     0.9220 hc         1 OKS       0.041200
     20 H8           1.5200     1.0180    -0.8190 hc         1 OKS       0.041200
     21 H9           0.3780    -1.2060    -1.0470 hc         1 OKS       0.036200
     22 H10          0.3150    -1.3460     0.6980 hc         1 OKS       0.036200
     23 H11         -1.0870     0.7230     0.8150 hc         1 OKS       0.055700
     24 H12         -0.9990     0.8830    -0.9280 hc         1 OKS       0.055700
     25 H13         -2.1080    -1.3560    -1.1820 hc         1 OKS       0.058700
     26 H14         -2.2280    -1.4920     0.5580 hc         1 OKS       0.058700
     27 H15          6.5110     0.9710     1.0540 hn         1 OKS       0.391500
     28 H16          7.3780    -0.0080     0.1110 hn         1 OKS       0.391500
     29 H18         -4.4340    -1.5160     0.7180 hn         1 OKS       0.326500
     30 H19         -6.0130     0.4090     0.9090 ho         1 OKS       0.449000
@<TRIPOS>BOND
     1     1     2 1   
     2     1     9 1   
     3     1    13 1   
     4     1    14 1   
     5     2     3 1   
     6     2    15 1   
     7     2    16 1   
     8     3     4 1   
     9     3    17 1   
    10     3    18 1   
    11     4     5 1   
    12     4    19 1   
    13     4    20 1   
    14     5     6 1   
    15     5    21 1   
    16     5    22 1   
    17     6     7 1   
    18     6    23 1   
    19     6    24 1   
    20     7     8 1   
    21     7    25 1   
    22     7    26 1   
    23     8    10 1   
    24     8    12 2   
    25     9    27 1   
    26     9    28 1   
    27    10    11 1   
    28    10    29 1   
    29    11    30 1   
@<TRIPOS>SUBSTRUCTURE
     1 OKS         1 TEMP              0 ****  ****    0 ROOT
