@<TRIPOS>MOLECULE
OKU
   82    88     1     0     0
SMALL
No Charge or Current Charge


@<TRIPOS>ATOM
      1 C4          15.8350    21.8240    -6.4540 ca         1 OKU      -0.067000
      2 C5          19.1970    23.6560    -7.5960 ca         1 OKU      -0.010000
      3 C6          10.3560    22.5600    -1.8540 ca         1 OKU      -0.105000
      4 C7           8.5480    26.2990    -1.5660 cc         1 OKU      -0.197100
      5 C8          20.6660    25.1720    -8.8250 ca         1 OKU       0.372900
      6 C10         15.9560    21.2960    -5.1430 ca         1 OKU      -0.145600
      7 C13         16.7790    21.4650    -7.4290 ca         1 OKU      -0.105300
      8 C15         10.8040    23.5230    -2.7920 ca         1 OKU      -0.105300
      9 C17          8.8280    24.1830    -0.9010 ca         1 OKU      -0.069000
     10 C20         19.1890    25.7560    -5.3980 c2         1 OKU      -0.189200
     11 C21         14.9980    21.6790    -4.0410 c          1 OKU       0.615700
     12 C22         13.6160    24.9590    -3.0670 c          1 OKU       0.613100
     13 C24         18.7910    20.4490    -8.2760 c5         1 OKU      -0.012100
     14 C26         19.2220    26.7240    -4.2390 c3         1 OKU       0.193800
     15 C28         14.6730    27.4800    -0.7590 c3         1 OKU       0.143600
     16 C1          17.0120    20.3950    -4.8590 ca         1 OKU      -0.056000
     17 C11         19.9750    24.8370    -7.6240 ca         1 OKU      -0.124800
     18 C12         17.8370    20.6270    -7.1220 ca         1 OKU      -0.072300
     19 C14         19.1410    22.9120    -8.7810 ca         1 OKU      -0.184300
     20 C16          9.3640    22.8810    -0.8980 ca         1 OKU      -0.045300
     21 C18         19.8340    23.3470    -9.8810 ca         1 OKU       0.466900
     22 C19         20.0490    25.7520    -6.4440 ce         1 OKU      -0.161200
     23 C2          17.9630    20.0680    -5.8440 ca         1 OKU      -0.107000
     24 C23         18.6810    21.4930   -10.6990 c          1 OKU       0.578000
     25 C25         16.8220    21.9450    -8.8600 c5         1 OKU      -0.008100
     26 C27         13.4580    27.0350    -1.6200 c3         1 OKU       0.069000
     27 C29         17.6990    28.0590    -2.9210 c3         1 OKU       0.162600
     28 C3          10.2440    24.8190    -2.7820 ca         1 OKU      -0.040000
     29 C30         16.2080    28.1870    -2.5240 c3         1 OKU       0.155600
     30 C31         13.3320    23.4310    -3.2690 c3         1 OKU       0.046700
     31 C32         18.3420    21.6670    -9.1730 c5         1 OKU      -0.088700
     32 C33          8.8960    21.8420     0.1130 c3         1 OKU      -0.039800
     33 C35         11.8960    23.1670    -3.7910 c3         1 OKU      -0.038100
     34 C9           9.2680    25.1020    -1.8220 ca         1 OKU      -0.142000
     35 N36         20.5990    24.4400    -9.9700 nb         1 OKU      -0.693000
     36 N37          7.7090    26.0150    -0.4920 na         1 OKU       0.012500
     37 N38          7.8510    24.6960    -0.0410 nc         1 OKU      -0.284400
     38 N39         19.5620    22.5210   -10.9460 ns         1 OKU      -0.319900
     39 N40         14.3090    22.8590    -4.2220 ns         1 OKU      -0.492900
     40 N41         13.3340    25.5650    -1.8120 n          1 OKU      -0.387800
     41 O42         14.8390    20.9880    -3.0450 o          1 OKU      -0.600100
     42 O43         14.0330    25.6330    -4.0040 o          1 OKU      -0.604100
     43 O44         18.2890    20.6680   -11.5120 o          1 OKU      -0.513000
     44 O45         17.8670    26.9480    -3.8220 os         1 OKU      -0.432000
     45 O46         15.9180    27.2570    -1.4560 os         1 OKU      -0.425000
     46 H1          15.0250    22.4970    -6.7230 ha         1 OKU       0.119000
     47 H2          18.6470    23.3440    -6.7130 ha         1 OKU       0.139000
     48 H4           8.5590    27.2790    -2.0310 h4         1 OKU       0.229000
     49 H5          21.2710    26.0770    -8.8770 h4         1 OKU       0.022100
     50 H6          18.3610    25.0510    -5.3390 ha         1 OKU       0.189000
     51 H7          18.6280    19.4890    -8.7790 hc         1 OKU       0.072700
     52 H8          19.8460    20.4990    -7.9840 hc         1 OKU       0.072700
     53 H9          19.8190    26.3100    -3.4160 h1         1 OKU       0.025700
     54 H10         19.6880    27.6650    -4.5630 h1         1 OKU       0.025700
     55 H11         14.6680    26.9210     0.1850 h1         1 OKU       0.042700
     56 H12         14.5630    28.5420    -0.5040 h1         1 OKU       0.042700
     57 H13         17.1180    19.9730    -3.8610 ha         1 OKU       0.139000
     58 H14         20.8500    26.4940    -6.4860 ha         1 OKU       0.172000
     59 H15         18.7920    19.4040    -5.6100 ha         1 OKU       0.122000
     60 H16         16.5420    22.9990    -8.9800 hc         1 OKU       0.070700
     61 H17         16.1580    21.3490    -9.4970 hc         1 OKU       0.070700
     62 H18         13.4790    27.5520    -2.5870 h1         1 OKU       0.055200
     63 H19         12.5460    27.3780    -1.1130 h1         1 OKU       0.055200
     64 H20         18.3120    27.9320    -2.0190 h1         1 OKU       0.023700
     65 H21         18.0100    28.9890    -3.4140 h1         1 OKU       0.023700
     66 H22         10.5680    25.5800    -3.4880 ha         1 OKU       0.126000
     67 H23         16.0360    29.2170    -2.1830 h1         1 OKU       0.035200
     68 H24         15.5700    28.0080    -3.3990 h1         1 OKU       0.035200
     69 H25         13.4540    22.9220    -2.3070 h1         1 OKU       0.067700
     70 H26          9.0950    22.1770     1.1380 hc         1 OKU       0.045367
     71 H27          7.8180    21.6640     0.0210 hc         1 OKU       0.045367
     72 H28          9.4040    20.8810    -0.0260 hc         1 OKU       0.045367
     73 H29         12.9210    25.4090     0.2730 h1         1 OKU       0.042700
     74 H30         12.2330    24.1080    -0.7120 h1         1 OKU       0.042700
     75 H31         13.9890    24.1410    -0.3830 h1         1 OKU       0.042700
     76 H32         11.7470    23.7210    -4.7260 hc         1 OKU       0.059200
     77 H33         11.8080    22.1060    -4.0560 hc         1 OKU       0.059200
     78 H34          7.0520    26.6520    -0.0470 hn         1 OKU       0.370000
     79 H35         19.9580    22.6900   -11.8590 hn         1 OKU       0.185000
     80 H36         14.5460    23.4030    -5.0430 hn         1 OKU       0.322500
     81 C34         13.1050    24.7570    -0.5900 c3         1 OKU       0.088300
     82 H3          10.7910    21.5630    -1.8630 ha         1 OKU       0.108000
@<TRIPOS>BOND
     1     1     6 ar  
     2     1     7 ar  
     3     1    46 1   
     4     2    17 ar  
     5     2    19 ar  
     6     2    47 1   
     7     3     8 ar  
     8     3    20 ar  
     9     3    82 1   
    10     4    34 2   
    11     4    36 1   
    12     4    48 1   
    13     5    17 ar  
    14     5    35 ar  
    15     5    49 1   
    16     6    11 1   
    17     6    16 ar  
    18     7    18 ar  
    19     7    25 1   
    20     8    28 ar  
    21     8    33 1   
    22     9    20 ar  
    23     9    34 ar  
    24     9    37 2   
    25    10    14 1   
    26    10    22 2   
    27    10    50 1   
    28    11    39 1   
    29    11    41 2   
    30    12    30 1   
    31    12    40 1   
    32    12    42 2   
    33    13    18 1   
    34    13    31 1   
    35    13    51 1   
    36    13    52 1   
    37    14    44 1   
    38    14    53 1   
    39    14    54 1   
    40    15    26 1   
    41    15    45 1   
    42    15    55 1   
    43    15    56 1   
    44    16    23 ar  
    45    16    57 1   
    46    17    22 1   
    47    18    23 ar  
    48    19    21 ar  
    49    19    31 1   
    50    20    32 1   
    51    21    35 ar  
    52    21    38 1   
    53    22    58 1   
    54    23    59 1   
    55    24    31 1   
    56    24    38 1   
    57    24    43 2   
    58    25    31 1   
    59    25    60 1   
    60    25    61 1   
    61    26    40 1   
    62    26    62 1   
    63    26    63 1   
    64    27    29 1   
    65    27    44 1   
    66    27    64 1   
    67    27    65 1   
    68    28    34 ar  
    69    28    66 1   
    70    29    45 1   
    71    29    67 1   
    72    29    68 1   
    73    30    33 1   
    74    30    39 1   
    75    30    69 1   
    76    32    70 1   
    77    32    71 1   
    78    32    72 1   
    79    33    76 1   
    80    33    77 1   
    81    36    37 1   
    82    36    78 1   
    83    38    79 1   
    84    39    80 1   
    85    40    81 1   
    86    73    81 1   
    87    74    81 1   
    88    75    81 1   
@<TRIPOS>SUBSTRUCTURE
     1 OKU         1 TEMP              0 ****  ****    0 ROOT
