@<TRIPOS>MOLECULE
OKU
   82    88     1     0     0
SMALL
abcg2


@<TRIPOS>ATOM
      1 C4          15.9410    21.9160    -6.3460 ca         1 OKU      -0.067000
      2 C5          19.0020    23.8430    -7.7200 ca         1 OKU      -0.010000
      3 C6          10.1050    22.9320    -2.0760 ca         1 OKU      -0.105000
      4 C7           8.7160    26.7870    -1.8020 cc         1 OKU      -0.197100
      5 C8          20.2400    25.3610    -9.0900 ca         1 OKU       0.372900
      6 C10         16.1680    21.7560    -4.9750 ca         1 OKU      -0.145600
      7 C13         16.8840    21.4520    -7.2410 ca         1 OKU      -0.105300
      8 C15         10.6590    23.8300    -3.0400 ca         1 OKU      -0.105300
      9 C17          8.7970    24.6710    -1.1460 ca         1 OKU      -0.069000
     10 C20         19.1020    25.9480    -5.5960 c2         1 OKU      -0.189200
     11 C21         15.2670    22.3300    -3.9300 c          1 OKU       0.615700
     12 C22         13.5440    24.5500    -2.8840 c          1 OKU       0.613100
     13 C24         18.9650    20.5620    -7.9540 c5         1 OKU      -0.012100
     14 C26         19.0080    27.0210    -4.5650 c3         1 OKU       0.193800
     15 C28         15.1780    26.4590    -0.6010 c3         1 OKU       0.143600
     16 C1          17.3230    21.1100    -4.5380 ca         1 OKU      -0.056000
     17 C11         19.6140    25.1000    -7.8760 ca         1 OKU      -0.124800
     18 C12         18.0480    20.8310    -6.7940 ca         1 OKU      -0.072300
     19 C14         19.0450    22.9610    -8.7630 ca         1 OKU      -0.184300
     20 C16          9.1900    23.3060    -1.1310 ca         1 OKU      -0.045300
     21 C18         19.6960    23.3600    -9.9320 ca         1 OKU       0.466900
     22 C19         19.5550    26.1290    -6.8370 ce         1 OKU      -0.161200
     23 C2          18.2640    20.6350    -5.4430 ca         1 OKU      -0.107000
     24 C23         18.8710    21.2910   -10.4180 c          1 OKU       0.578000
     25 C25         16.9330    21.6070    -8.7370 c5         1 OKU      -0.008100
     26 C27         13.7670    26.1880    -1.1090 c3         1 OKU       0.069000
     27 C29         17.5170    27.9160    -2.9870 c3         1 OKU       0.162600
     28 C3          10.2770    25.1430    -3.0600 ca         1 OKU      -0.040000
     29 C30         16.1720    27.7070    -2.3380 c3         1 OKU       0.155600
     30 C31         13.0700    23.1590    -3.3290 c3         1 OKU       0.046700
     31 C32         18.4570    21.5990    -8.9790 c5         1 OKU      -0.088700
     32 C33          8.6180    22.3580    -0.1270 c3         1 OKU      -0.039800
     33 C35         11.6960    23.3090    -3.9960 c3         1 OKU      -0.038100
     34 C9           9.3330    25.5770    -2.1020 ca         1 OKU      -0.142000
     35 N36         20.2940    24.5090   -10.1210 nb         1 OKU      -0.693000
     36 N37          7.9160    26.5320    -0.7620 na         1 OKU       0.012500
     37 N38          7.9280    25.2790    -0.3340 nc         1 OKU      -0.284400
     38 N39         19.5910    22.3570   -10.8790 ns         1 OKU      -0.319900
     39 N40         14.0000    22.6000    -4.2830 ns         1 OKU      -0.492900
     40 N41         13.5510    24.8260    -1.5680 n          1 OKU      -0.387800
     41 O42         15.6740    22.5520    -2.7970 o          1 OKU      -0.600100
     42 O43         13.8170    25.3760    -3.7440 o          1 OKU      -0.604100
     43 O44         18.6140    20.2860   -11.0400 o          1 OKU      -0.513000
     44 O45         17.7200    26.9600    -3.9970 os         1 OKU      -0.432000
     45 O46         16.1710    26.5120    -1.5920 os         1 OKU      -0.425000
     46 H1          15.0750    22.4510    -6.7180 ha         1 OKU       0.119000
     47 H2          18.4880    23.5920    -6.8010 ha         1 OKU       0.139000
     48 H4           8.7910    27.7690    -2.2390 h4         1 OKU       0.229000
     49 H5          20.7210    26.3210    -9.2470 h4         1 OKU       0.022100
     50 H6          18.7760    24.9670    -5.2640 ha         1 OKU       0.189000
     51 H7          18.8230    19.5470    -8.3400 hc         1 OKU       0.072700
     52 H8          20.0210    20.6820    -7.7160 hc         1 OKU       0.072700
     53 H9          19.7720    26.8630    -3.7880 h1         1 OKU       0.025700
     54 H10         19.2070    28.0060    -5.0100 h1         1 OKU       0.025700
     55 H11         15.4730    25.6710     0.0970 h1         1 OKU       0.042700
     56 H12         15.1520    27.3970    -0.0290 h1         1 OKU       0.042700
     57 H13         17.5020    21.0000    -3.4770 ha         1 OKU       0.139000
     58 H14         19.8920    27.1180    -7.1360 ha         1 OKU       0.172000
     59 H15         19.1680    20.1590    -5.0850 ha         1 OKU       0.122000
     60 H16         16.4490    22.5120    -9.1060 hc         1 OKU       0.070700
     61 H17         16.4650    20.7500    -9.2330 hc         1 OKU       0.070700
     62 H18         13.4970    26.8830    -1.9030 h1         1 OKU       0.055200
     63 H19         13.0730    26.3760    -0.2860 h1         1 OKU       0.055200
     64 H20         18.3080    27.8610    -2.2250 h1         1 OKU       0.023700
     65 H21         17.5440    28.9340    -3.4000 h1         1 OKU       0.023700
     66 H22         10.6900    25.8310    -3.7870 ha         1 OKU       0.126000
     67 H23         15.9860    28.5720    -1.6860 h1         1 OKU       0.035200
     68 H24         15.3850    27.7070    -3.1020 h1         1 OKU       0.035200
     69 H25         12.9680    22.4710    -2.4890 h1         1 OKU       0.067700
     70 H26          8.8290    22.6870     0.8920 hc         1 OKU       0.045367
     71 H27          7.5320    22.2920    -0.2170 hc         1 OKU       0.045367
     72 H28          9.0290    21.3570    -0.2510 hc         1 OKU       0.045367
     73 H29         13.6120    24.2540     0.4280 h1         1 OKU       0.042700
     74 H30         12.3210    23.4810    -0.4780 h1         1 OKU       0.042700
     75 H31         14.0070    22.9610    -0.6850 h1         1 OKU       0.042700
     76 H32         11.7850    23.9730    -4.8580 hc         1 OKU       0.059200
     77 H33         11.3950    22.3280    -4.3740 hc         1 OKU       0.059200
     78 H34          7.3220    27.2030    -0.2990 hn         1 OKU       0.370000
     79 H35         19.9770    22.4150   -11.8110 hn         1 OKU       0.185000
     80 H36         13.6470    22.3230    -5.1840 hn         1 OKU       0.322500
     81 C34         13.3560    23.8200    -0.5360 c3         1 OKU       0.088300
     82 H3          10.4320    21.8970    -2.1030 ha         1 OKU       0.108000
@<TRIPOS>BOND
     1     1     6 ar  
     2     1     7 ar  
     3     1    46 1   
     4     2    17 ar  
     5     2    19 ar  
     6     2    47 1   
     7     3     8 ar  
     8     3    20 ar  
     9     3    82 1   
    10     4    34 2   
    11     4    36 1   
    12     4    48 1   
    13     5    17 ar  
    14     5    35 ar  
    15     5    49 1   
    16     6    11 1   
    17     6    16 ar  
    18     7    18 ar  
    19     7    25 1   
    20     8    28 ar  
    21     8    33 1   
    22     9    20 ar  
    23     9    34 ar  
    24     9    37 2   
    25    10    14 1   
    26    10    22 2   
    27    10    50 1   
    28    11    39 1   
    29    11    41 2   
    30    12    30 1   
    31    12    40 1   
    32    12    42 2   
    33    13    18 1   
    34    13    31 1   
    35    13    51 1   
    36    13    52 1   
    37    14    44 1   
    38    14    53 1   
    39    14    54 1   
    40    15    26 1   
    41    15    45 1   
    42    15    55 1   
    43    15    56 1   
    44    16    23 ar  
    45    16    57 1   
    46    17    22 1   
    47    18    23 ar  
    48    19    21 ar  
    49    19    31 1   
    50    20    32 1   
    51    21    35 ar  
    52    21    38 1   
    53    22    58 1   
    54    23    59 1   
    55    24    31 1   
    56    24    38 1   
    57    24    43 2   
    58    25    31 1   
    59    25    60 1   
    60    25    61 1   
    61    26    40 1   
    62    26    62 1   
    63    26    63 1   
    64    27    29 1   
    65    27    44 1   
    66    27    64 1   
    67    27    65 1   
    68    28    34 ar  
    69    28    66 1   
    70    29    45 1   
    71    29    67 1   
    72    29    68 1   
    73    30    33 1   
    74    30    39 1   
    75    30    69 1   
    76    32    70 1   
    77    32    71 1   
    78    32    72 1   
    79    33    76 1   
    80    33    77 1   
    81    36    37 1   
    82    36    78 1   
    83    38    79 1   
    84    39    80 1   
    85    40    81 1   
    86    73    81 1   
    87    74    81 1   
    88    75    81 1   
@<TRIPOS>SUBSTRUCTURE
     1 OKU         1 TEMP              0 ****  ****    0 ROOT
