@<TRIPOS>MOLECULE
OKV
   53    56     1     0     0
SMALL
No Charge or Current Charge


@<TRIPOS>ATOM
      1 C13         -3.4120    -1.7860     0.2860 ca         1 OKV       0.011000
      2 C15         -4.3940     0.4280     0.2810 ca         1 OKV       0.034000
      3 C17         -3.1380    -0.3150    -1.6510 ca         1 OKV       0.021000
      4 C24          3.3700     0.8090     0.4800 ca         1 OKV      -0.108000
      5 C26          5.4660     0.6020     1.6930 ca         1 OKV      -0.096000
      6 C28          4.7030     2.9370     0.9660 c3         1 OKV       0.354300
      7 C01          4.1360    -1.3770     1.1980 ca         1 OKV      -0.145000
      8 C02          3.1710    -0.5840     0.5480 ca         1 OKV       0.296000
      9 C04          1.4400    -2.4440     0.4840 c6         1 OKV       0.200300
     10 C05         -0.0660    -2.6160     0.1150 c6         1 OKV       0.181300
     11 C07          0.1910    -1.1320    -1.8030 c6         1 OKV       0.181300
     12 C08          1.7040    -0.9280    -1.4760 c6         1 OKV       0.200300
     13 C12         -2.8900    -1.5460    -1.0070 ca         1 OKV      -0.345500
     14 C14         -4.1680    -0.7940     0.9390 ca         1 OKV      -0.145000
     15 C16         -3.8930     0.6610    -0.9820 ca         1 OKV      -0.165300
     16 C18         -4.2520     2.0360    -1.5110 c5         1 OKV      -0.038100
     17 C19         -5.0930     2.6590    -0.3250 c5         1 OKV       0.099000
     18 C23         -6.4980     3.0950     2.1960 c3         1 OKV      -0.178100
     19 C25          4.5160     1.4170     1.0410 ca         1 OKV      -0.165300
     20 C27          5.2770    -0.7880     1.7680 ca         1 OKV      -0.084000
     21 F29          4.2050     3.4570    -0.1800 f          1 OKV      -0.114667
     22 F30          4.0750     3.5600     1.9880 f          1 OKV      -0.114667
     23 F31          6.0050     3.3030     1.0200 f          1 OKV      -0.114667
     24 N03          2.0120    -1.1580    -0.0290 nh         1 OKV      -0.795400
     25 N06         -0.3230    -2.4570    -1.3470 n3         1 OKV      -0.705500
     26 N20         -5.1090     1.5790     0.7030 n          1 OKV      -0.226400
     27 O10         -2.2330    -4.1290    -1.2700 o          1 OKV      -0.534500
     28 O11         -1.9550    -2.5950    -3.2870 o          1 OKV      -0.534500
     29 O22         -5.8110     0.8980     2.8060 o          1 OKV      -0.570100
     30 S09         -1.9160    -2.8130    -1.8370 sy         1 OKV       1.153600
     31 H1          -3.2320    -2.7350     0.7890 ha         1 OKV       0.136000
     32 H2          -2.7510    -0.1130    -2.6490 ha         1 OKV       0.134000
     33 H3           2.6150     1.4230    -0.0020 ha         1 OKV       0.130000
     34 H4           6.3530     1.0400     2.1480 ha         1 OKV       0.132000
     35 H5           4.0140    -2.4540     1.2580 ha         1 OKV       0.119000
     36 H6           1.5340    -2.4930     1.5790 h1         1 OKV       0.052200
     37 H7           2.0020    -3.2930     0.0670 h1         1 OKV       0.052200
     38 H8          -0.3860    -3.6080     0.4630 h1         1 OKV       0.064450
     39 H9          -0.6430    -1.8740     0.6870 h1         1 OKV       0.064450
     40 H10         -0.3720    -0.3170    -1.3250 h1         1 OKV       0.064450
     41 H11          0.0630    -1.0160    -2.8890 h1         1 OKV       0.064450
     42 H12          2.2910    -1.6250    -2.0920 h1         1 OKV       0.052200
     43 H13          1.9880     0.0890    -1.7820 h1         1 OKV       0.052200
     44 H14         -4.5590    -0.9940     1.9320 ha         1 OKV       0.155000
     45 H15         -3.3620     2.6370    -1.7290 hc         1 OKV       0.065700
     46 H16         -4.6150     3.5690     0.0600 h1         1 OKV       0.053200
     47 H17         -5.7860     3.9190     2.0790 hc         1 OKV       0.067033
     48 H18         -7.2200     3.2810     1.3930 hc         1 OKV       0.067033
     49 H19         -6.9820     3.1270     3.1780 hc         1 OKV       0.067033
     50 H20          6.0160    -1.4090     2.2700 ha         1 OKV       0.119000
     51 H21         -4.8410     1.9800    -2.4330 hc         1 OKV       0.065700
     52 H22         -6.1100     2.9120    -0.6540 h1         1 OKV       0.053200
     53 C21         -5.7820     1.7630     1.9400 c          1 OKV       0.616100
@<TRIPOS>BOND
     1     1    13 ar  
     2     1    14 ar  
     3     1    31 1   
     4     2    14 ar  
     5     2    15 ar  
     6     2    26 1   
     7     3    13 ar  
     8     3    15 ar  
     9     3    32 1   
    10     4     8 ar  
    11     4    19 ar  
    12     4    33 1   
    13     5    19 ar  
    14     5    20 ar  
    15     5    34 1   
    16     6    19 1   
    17     6    21 1   
    18     6    22 1   
    19     6    23 1   
    20     7     8 ar  
    21     7    20 ar  
    22     7    35 1   
    23     8    24 1   
    24     9    10 1   
    25     9    24 1   
    26     9    36 1   
    27     9    37 1   
    28    10    25 1   
    29    10    38 1   
    30    10    39 1   
    31    11    12 1   
    32    11    25 1   
    33    11    40 1   
    34    11    41 1   
    35    12    24 1   
    36    12    42 1   
    37    12    43 1   
    38    13    30 1   
    39    14    44 1   
    40    15    16 1   
    41    16    17 1   
    42    16    45 1   
    43    16    51 1   
    44    17    26 1   
    45    17    46 1   
    46    17    52 1   
    47    18    47 1   
    48    18    48 1   
    49    18    49 1   
    50    18    53 1   
    51    20    50 1   
    52    25    30 1   
    53    26    53 1   
    54    27    30 2   
    55    28    30 2   
    56    29    53 2   
@<TRIPOS>SUBSTRUCTURE
     1 OKV         1 TEMP              0 ****  ****    0 ROOT
