@<TRIPOS>MOLECULE
OKV
   53    56     1     0     0
SMALL
bcc


@<TRIPOS>ATOM
      1 C13         -3.4880    -1.7040     0.2480 ca         1 OKV      -0.007000
      2 C15         -4.6010     0.4070     0.2720 ca         1 OKV       0.126600
      3 C17         -3.1800    -0.1590    -1.5920 ca         1 OKV       0.003000
      4 C24          3.7300     0.7200     0.2870 ca         1 OKV      -0.126000
      5 C26          5.7010     0.3570     1.6380 ca         1 OKV      -0.114000
      6 C28          5.3950     2.5570     0.5010 c3         1 OKV       0.718200
      7 C01          4.0270    -1.3710     1.4200 ca         1 OKV      -0.163000
      8 C02          3.2490    -0.5630     0.5840 ca         1 OKV       0.157600
      9 C04          1.4750    -2.2350     0.5360 c6         1 OKV       0.200300
     10 C05         -0.0160    -2.3020     0.2610 c6         1 OKV       0.181300
     11 C07          0.2630    -0.7980    -1.6130 c6         1 OKV       0.181300
     12 C08          1.7510    -0.7520    -1.3330 c6         1 OKV       0.200300
     13 C12         -2.9130    -1.3820    -0.9740 ca         1 OKV      -0.345500
     14 C14         -4.3400    -0.8140     0.8870 ca         1 OKV      -0.163000
     15 C16         -4.0210     0.7250    -0.9590 ca         1 OKV      -0.165300
     16 C18         -4.4420     2.0940    -1.3970 c5         1 OKV      -0.038100
     17 C19         -5.4650     2.5140    -0.3330 c5         1 OKV       0.099000
     18 C23         -6.9460     2.7530     2.0580 c3         1 OKV      -0.178100
     19 C25          4.9390     1.1620     0.7970 ca         1 OKV      -0.165300
     20 C27          5.2260    -0.9070     1.9420 ca         1 OKV      -0.102000
     21 F29          4.9360     3.0120    -0.6710 f          1 OKV      -0.235967
     22 F30          4.9780     3.4230     1.4390 f          1 OKV      -0.235967
     23 F31          6.7300     2.6540     0.4610 f          1 OKV      -0.235967
     24 N03          2.0190    -0.9740     0.0790 nh         1 OKV      -0.657000
     25 N06         -0.2660    -2.0840    -1.1620 n3         1 OKV      -0.705500
     26 N20         -5.4130     1.4570     0.6910 n          1 OKV      -0.386000
     27 O10         -2.0470    -3.8390    -1.2250 o          1 OKV      -0.605300
     28 O11         -1.7640    -2.2570    -3.1550 o          1 OKV      -0.605300
     29 O22         -6.0600     0.6280     2.6940 o          1 OKV      -0.570100
     30 S09         -1.7720    -2.5000    -1.7220 sy         1 OKV       1.295200
     31 H1          -3.2880    -2.6590     0.7160 ha         1 OKV       0.154000
     32 H2          -2.7440     0.0930    -2.5500 ha         1 OKV       0.152000
     33 H3           3.1390     1.3790    -0.3340 ha         1 OKV       0.148000
     34 H4           6.6430     0.6930     2.0460 ha         1 OKV       0.150000
     35 H5           3.7180    -2.3770     1.6670 ha         1 OKV       0.137000
     36 H6           1.5990    -2.3220     1.6150 h1         1 OKV       0.052200
     37 H7           1.9760    -3.0950     0.0700 h1         1 OKV       0.052200
     38 H8          -0.3730    -3.2870     0.5560 h1         1 OKV       0.064450
     39 H9          -0.5310    -1.5490     0.8710 h1         1 OKV       0.064450
     40 H10         -0.2330     0.0370    -1.1000 h1         1 OKV       0.064450
     41 H11          0.1100    -0.6860    -2.6840 h1         1 OKV       0.064450
     42 H12          2.2610    -1.5040    -1.9500 h1         1 OKV       0.052200
     43 H13          2.1130     0.2250    -1.6440 h1         1 OKV       0.052200
     44 H14         -4.7790    -1.0830     1.8320 ha         1 OKV       0.173000
     45 H15         -3.5880     2.7730    -1.4180 hc         1 OKV       0.065700
     46 H16         -5.2160     3.4790     0.1050 h1         1 OKV       0.053200
     47 H17         -6.3260     3.6510     2.0870 hc         1 OKV       0.067033
     48 H18         -7.6660     2.8840     1.2490 hc         1 OKV       0.067033
     49 H19         -7.4880     2.6780     2.9970 hc         1 OKV       0.067033
     50 H20          5.8040    -1.5550     2.5870 ha         1 OKV       0.137000
     51 H21         -4.8770     2.0900    -2.3960 hc         1 OKV       0.065700
     52 H22         -6.4720     2.5810    -0.7480 h1         1 OKV       0.053200
     53 C21         -6.1120     1.5170     1.8620 c          1 OKV       0.683100
@<TRIPOS>BOND
     1     1    13 ar  
     2     1    14 ar  
     3     1    31 1   
     4     2    14 ar  
     5     2    15 ar  
     6     2    26 1   
     7     3    13 ar  
     8     3    15 ar  
     9     3    32 1   
    10     4     8 ar  
    11     4    19 ar  
    12     4    33 1   
    13     5    19 ar  
    14     5    20 ar  
    15     5    34 1   
    16     6    19 1   
    17     6    21 1   
    18     6    22 1   
    19     6    23 1   
    20     7     8 ar  
    21     7    20 ar  
    22     7    35 1   
    23     8    24 1   
    24     9    10 1   
    25     9    24 1   
    26     9    36 1   
    27     9    37 1   
    28    10    25 1   
    29    10    38 1   
    30    10    39 1   
    31    11    12 1   
    32    11    25 1   
    33    11    40 1   
    34    11    41 1   
    35    12    24 1   
    36    12    42 1   
    37    12    43 1   
    38    13    30 1   
    39    14    44 1   
    40    15    16 1   
    41    16    17 1   
    42    16    45 1   
    43    16    51 1   
    44    17    26 1   
    45    17    46 1   
    46    17    52 1   
    47    18    47 1   
    48    18    48 1   
    49    18    49 1   
    50    18    53 1   
    51    20    50 1   
    52    25    30 1   
    53    26    53 1   
    54    27    30 2   
    55    28    30 2   
    56    29    53 2   
@<TRIPOS>SUBSTRUCTURE
     1 OKV         1 TEMP              0 ****  ****    0 ROOT
