@<TRIPOS>MOLECULE
OKW
   35    37     1     0     0
SMALL
No Charge or Current Charge


@<TRIPOS>ATOM
      1 N1           7.0950     0.4860    17.2320 nb         1 OKW      -0.652000
      2 C4          10.9850    -0.8230    22.5380 ca         1 OKW      -0.071300
      3 C5           9.4850    -1.0670    22.6730 c3         1 OKW      -0.107100
      4 C6           8.6920    -0.0410    21.8530 c          1 OKW       0.600100
      5 C7           7.4540     0.1200    19.6240 ca         1 OKW      -0.082000
      6 C8           7.8010    -0.0480    18.2620 ca         1 OKW       0.310900
      7 C10          5.5640     1.3970    18.8580 ca         1 OKW      -0.127300
      8 C13          5.6250     1.1480    21.2330 c5         1 OKW      -0.036100
      9 C15         11.7260    -1.4830    21.5380 ca         1 OKW      -0.098000
     10 O            8.5080     1.1030    22.2530 o          1 OKW      -0.575100
     11 C3          11.6410     0.0710    23.4080 ca         1 OKW      -0.083000
     12 C2          13.0220     0.3010    23.2810 ca         1 OKW      -0.099000
     13 C1          13.7560    -0.3610    22.2810 ca         1 OKW      -0.095000
     14 C           13.1060    -1.2520    21.4120 ca         1 OKW       0.125000
     15 Cl          14.0230    -2.0800    20.1590 cl         1 OKW      -0.213000
     16 N            8.2550    -0.5030    20.6210 ns         1 OKW      -0.157000
     17 C14          6.2870     0.8640    19.9060 ca         1 OKW      -0.044300
     18 C12          4.1680     1.5170    20.7600 c5         1 OKW      -0.078400
     19 C11          4.3350     2.1330    19.3210 c5         1 OKW      -0.029100
     20 C9           5.9880     1.2060    17.5320 ca         1 OKW       0.333900
     21 H1           9.1920    -0.9750    23.7260 hc         1 OKW       0.067700
     22 H2           9.2530    -2.0790    22.3210 hc         1 OKW       0.067700
     23 H3           8.6820    -0.6260    17.9860 h4         1 OKW       0.018100
     24 H4           5.6330     0.2920    21.9180 hc         1 OKW       0.068200
     25 H5           6.0950     1.9950    21.7450 hc         1 OKW       0.068200
     26 H6          11.2370    -2.1750    20.8570 ha         1 OKW       0.124000
     27 H7          11.0800     0.5910    24.1820 ha         1 OKW       0.123000
     28 H8          13.5220     0.9930    23.9550 ha         1 OKW       0.121000
     29 H9          14.8240    -0.1850    22.1800 ha         1 OKW       0.132000
     30 H10          8.5550    -1.4420    20.3900 hn         1 OKW       0.154000
     31 H11          3.6640     2.2010    21.4530 hc         1 OKW       0.048200
     32 H12          3.5520     0.6120    20.7100 hc         1 OKW       0.048200
     33 H13          4.5050     3.2150    19.3600 hc         1 OKW       0.057200
     34 H14          3.4570     1.9540    18.6880 hc         1 OKW       0.057200
     35 H15          5.4260     1.6200    16.6960 h4         1 OKW       0.023100
@<TRIPOS>BOND
     1     1     6 ar  
     2     1    20 ar  
     3     2     3 1   
     4     2     9 ar  
     5     2    11 ar  
     6     3     4 1   
     7     3    21 1   
     8     3    22 1   
     9     4    10 2   
    10     4    16 1   
    11     5     6 ar  
    12     5    16 1   
    13     5    17 ar  
    14     6    23 1   
    15     7    17 ar  
    16     7    19 1   
    17     7    20 ar  
    18     8    17 1   
    19     8    18 1   
    20     8    24 1   
    21     8    25 1   
    22     9    14 ar  
    23     9    26 1   
    24    11    12 ar  
    25    11    27 1   
    26    12    13 ar  
    27    12    28 1   
    28    13    14 ar  
    29    13    29 1   
    30    14    15 1   
    31    16    30 1   
    32    18    19 1   
    33    18    31 1   
    34    18    32 1   
    35    19    33 1   
    36    19    34 1   
    37    20    35 1   
@<TRIPOS>SUBSTRUCTURE
     1 OKW         1 TEMP              0 ****  ****    0 ROOT
