@<TRIPOS>MOLECULE
OKW
   35    37     1     0     0
SMALL
abcg2


@<TRIPOS>ATOM
      1 N1           6.7180     0.1630    17.1980 nb         1 OKW      -0.652000
      2 C4          11.0070    -0.8370    22.4500 ca         1 OKW      -0.071300
      3 C5           9.5530    -1.2180    22.3470 c3         1 OKW      -0.107100
      4 C6           8.7820    -0.2510    21.4550 c          1 OKW       0.600100
      5 C7           7.2640    -0.1450    19.5240 ca         1 OKW      -0.082000
      6 C8           7.4400    -0.4070    18.1610 ca         1 OKW       0.310900
      7 C10          5.5260     1.3660    18.8790 ca         1 OKW      -0.127300
      8 C13          5.7850     1.1850    21.2440 c5         1 OKW      -0.036100
      9 C15         11.9100    -1.3020    21.4940 ca         1 OKW      -0.098000
     10 O            8.8100     0.9600    21.6330 o          1 OKW      -0.575100
     11 C3          11.4640    -0.0010    23.4670 ca         1 OKW      -0.083000
     12 C2          12.8030     0.3680    23.5290 ca         1 OKW      -0.099000
     13 C1          13.7080    -0.0900    22.5780 ca         1 OKW      -0.095000
     14 C           13.2420    -0.9240    21.5710 ca         1 OKW       0.125000
     15 CL          14.3670    -1.5200    20.3640 cl         1 OKW      -0.213000
     16 N            8.0590    -0.8400    20.4650 ns         1 OKW      -0.157000
     17 C14          6.2700     0.7530    19.8890 ca         1 OKW      -0.044300
     18 C12          4.4020     1.8050    20.9370 c5         1 OKW      -0.078400
     19 C11          4.4980     2.2950    19.4740 c5         1 OKW      -0.029100
     20 C9           5.7770     1.0500    17.5550 ca         1 OKW       0.333900
     21 H1           9.0830    -1.1690    23.3320 hc         1 OKW       0.067700
     22 H2           9.4520    -2.2400    21.9830 hc         1 OKW       0.067700
     23 H3           8.1980    -1.1210    17.8540 h4         1 OKW       0.018100
     24 H4           5.7430     0.3590    21.9550 hc         1 OKW       0.068200
     25 H5           6.4760     1.9240    21.6570 hc         1 OKW       0.068200
     26 H6          11.5760    -1.9540    20.6970 ha         1 OKW       0.124000
     27 H7          10.7690     0.3590    24.2140 ha         1 OKW       0.123000
     28 H8          13.1500     1.0160    24.3240 ha         1 OKW       0.121000
     29 H9          14.7520     0.1890    22.6190 ha         1 OKW       0.132000
     30 H10          8.2210    -1.8200    20.2900 hn         1 OKW       0.154000
     31 H11          4.1390     2.6020    21.6320 hc         1 OKW       0.048200
     32 H12          3.6350     1.0320    21.0070 hc         1 OKW       0.048200
     33 H13          4.8650     3.3260    19.4340 hc         1 OKW       0.057200
     34 H14          3.5430     2.2690    18.9490 hc         1 OKW       0.057200
     35 H15          5.2060     1.5030    16.7520 h4         1 OKW       0.023100
@<TRIPOS>BOND
     1     1     6 ar  
     2     1    20 ar  
     3     2     3 1   
     4     2     9 ar  
     5     2    11 ar  
     6     3     4 1   
     7     3    21 1   
     8     3    22 1   
     9     4    10 2   
    10     4    16 1   
    11     5     6 ar  
    12     5    16 1   
    13     5    17 ar  
    14     6    23 1   
    15     7    17 ar  
    16     7    19 1   
    17     7    20 ar  
    18     8    17 1   
    19     8    18 1   
    20     8    24 1   
    21     8    25 1   
    22     9    14 ar  
    23     9    26 1   
    24    11    12 ar  
    25    11    27 1   
    26    12    13 ar  
    27    12    28 1   
    28    13    14 ar  
    29    13    29 1   
    30    14    15 1   
    31    16    30 1   
    32    18    19 1   
    33    18    31 1   
    34    18    32 1   
    35    19    33 1   
    36    19    34 1   
    37    20    35 1   
@<TRIPOS>SUBSTRUCTURE
     1 OKW         1 TEMP              0 ****  ****    0 ROOT
