@<TRIPOS>MOLECULE
OKY
   53    56     1     0     0
SMALL
bcc


@<TRIPOS>ATOM
      1 C13         -3.8600     1.7180     0.1250 ca         1 OKY      -0.006000
      2 C15         -5.1140    -0.2400    -0.4120 ca         1 OKY       0.126600
      3 C17         -3.6720    -0.2520     1.5230 ca         1 OKY       0.003000
      4 C24          3.3360    -1.1080    -0.1970 ca         1 OKY      -0.132000
      5 C26          5.3290    -0.5700    -1.4650 ca         1 OKY      -0.114000
      6 C01          3.6830     1.1400    -0.9660 ca         1 OKY      -0.167000
      7 C02          2.8810     0.2170    -0.2850 ca         1 OKY       0.175600
      8 C04          1.3210     0.0840     1.5890 c6         1 OKY       0.201800
      9 C05         -0.1750     0.1340     1.8240 c6         1 OKY       0.182300
     10 C07         -0.3410     1.9730     0.2720 c6         1 OKY       0.182300
     11 C08          1.1560     1.9100     0.0280 c6         1 OKY       0.201800
     12 C12         -3.3210     1.0660     1.2260 ca         1 OKY      -0.346500
     13 C14         -4.7630     1.0730    -0.7090 ca         1 OKY      -0.163000
     14 C16         -4.5650    -0.8920     0.6960 ca         1 OKY      -0.165300
     15 C18         -5.0750    -2.2990     0.7730 c5         1 OKY      -0.038100
     16 C19         -6.1900    -2.3270    -0.2780 c5         1 OKY       0.099000
     17 C23         -7.6460    -1.8850    -2.6680 c3         1 OKY      -0.178100
     18 C25          4.5370    -1.4800    -0.7690 ca         1 OKY      -0.155300
     19 C27          4.8700     0.7290    -1.5480 ca         1 OKY       0.055400
     20 C29          4.9800    -2.9110    -0.7120 c3         1 OKY       0.720200
     21 F30          4.4050    -3.5870     0.2860 f          1 OKY      -0.232967
     22 F31          4.6800    -3.5600    -1.8470 f          1 OKY      -0.232967
     23 F32          6.3040    -3.0180    -0.5480 f          1 OKY      -0.232967
     24 N03          1.6580     0.5720     0.2600 nh         1 OKY      -0.658000
     25 N06         -0.6390     1.5030     1.6210 n3         1 OKY      -0.708500
     26 N20         -6.0030    -1.0940    -1.0600 n          1 OKY      -0.387000
     27 O10         -2.2940     3.3260     2.0440 o          1 OKY      -0.604300
     28 O11         -2.1890     1.3340     3.5710 o          1 OKY      -0.604300
     29 O22         -6.5210     0.2170    -2.8280 o          1 OKY      -0.569100
     30 S09         -2.1320     1.8930     2.2310 sy         1 OKY       1.298200
     31 CL28         5.8260     1.9040    -2.3890 cl         1 OKY      -0.099400
     32 H1          -3.5940     2.7430    -0.0920 ha         1 OKY       0.155000
     33 H2          -3.2640    -0.7670     2.3820 ha         1 OKY       0.151000
     34 H4           6.2640    -0.8550    -1.9240 ha         1 OKY       0.165000
     35 H5           3.4030     2.1810    -1.0380 ha         1 OKY       0.153000
     36 H6           1.8290     0.6770     2.3590 h1         1 OKY       0.054450
     37 H7           1.6350    -0.9500     1.7130 h1         1 OKY       0.054450
     38 H8          -0.6810    -0.5640     1.1440 h1         1 OKY       0.064700
     39 H9          -0.3690    -0.1810     2.8460 h1         1 OKY       0.064700
     40 H10         -0.6570     3.0070     0.1540 h1         1 OKY       0.064700
     41 H11         -0.8590     1.3650    -0.4800 h1         1 OKY       0.064700
     42 H12          1.3140     2.1910    -1.0130 h1         1 OKY       0.054450
     43 H13          1.6630     2.6540     0.6580 h1         1 OKY       0.054450
     44 H14         -5.1760     1.6010    -1.5520 ha         1 OKY       0.173000
     45 H15         -4.2800    -3.0070     0.5300 hc         1 OKY       0.065700
     46 H16         -6.1230    -3.2020    -0.9200 h1         1 OKY       0.054200
     47 H17         -8.1330    -1.5610    -3.5840 hc         1 OKY       0.066700
     48 H18         -7.1380    -2.8310    -2.8600 hc         1 OKY       0.066700
     49 H19         -8.4110    -2.0750    -1.9140 hc         1 OKY       0.066700
     50 H20         -5.4460    -2.5580     1.7630 hc         1 OKY       0.065700
     51 H21         -7.1770    -2.3220     0.1880 h1         1 OKY       0.054200
     52 C21         -6.6840    -0.8210    -2.2120 c          1 OKY       0.682100
     53 H3           2.7310    -1.8500     0.3020 ha         1 OKY       0.152000
@<TRIPOS>BOND
     1     1    12 ar  
     2     1    13 ar  
     3     1    32 1   
     4     2    13 ar  
     5     2    14 ar  
     6     2    26 1   
     7     3    12 ar  
     8     3    14 ar  
     9     3    33 1   
    10     4     7 ar  
    11     4    18 ar  
    12     4    53 1   
    13     5    18 ar  
    14     5    19 ar  
    15     5    34 1   
    16     6     7 ar  
    17     6    19 ar  
    18     6    35 1   
    19     7    24 1   
    20     8     9 1   
    21     8    24 1   
    22     8    36 1   
    23     8    37 1   
    24     9    25 1   
    25     9    38 1   
    26     9    39 1   
    27    10    11 1   
    28    10    25 1   
    29    10    40 1   
    30    10    41 1   
    31    11    24 1   
    32    11    42 1   
    33    11    43 1   
    34    12    30 1   
    35    13    44 1   
    36    14    15 1   
    37    15    16 1   
    38    15    45 1   
    39    15    50 1   
    40    16    26 1   
    41    16    46 1   
    42    16    51 1   
    43    17    47 1   
    44    17    48 1   
    45    17    49 1   
    46    17    52 1   
    47    18    20 1   
    48    19    31 1   
    49    20    21 1   
    50    20    22 1   
    51    20    23 1   
    52    25    30 1   
    53    26    52 1   
    54    27    30 2   
    55    28    30 2   
    56    29    52 2   
@<TRIPOS>SUBSTRUCTURE
     1 OKY         1 TEMP              0 ****  ****    0 ROOT
