@<TRIPOS>MOLECULE
OKY
   53    56     1     0     0
SMALL
No Charge or Current Charge


@<TRIPOS>ATOM
      1 C13         -3.7460     1.8070     0.1070 ca         1 OKY       0.012000
      2 C15         -4.8540    -0.2870    -0.3980 ca         1 OKY       0.034000
      3 C17         -3.6270    -0.0660     1.6780 ca         1 OKY       0.021000
      4 C24          2.8490    -1.1320    -0.5050 ca         1 OKY      -0.114000
      5 C26          4.9910    -0.8170    -1.6050 ca         1 OKY      -0.096000
      6 C01          3.7860     1.0970    -0.7020 ca         1 OKY      -0.149000
      7 C02          2.7510     0.2520    -0.2640 ca         1 OKY       0.314000
      8 C04          1.2440     0.2540     1.7630 c6         1 OKY       0.201800
      9 C05         -0.2650     0.4800     2.0900 c6         1 OKY       0.182300
     10 C07         -0.3670     2.3520     0.5310 c6         1 OKY       0.182300
     11 C08          1.1390     2.1680     0.1680 c6         1 OKY       0.201800
     12 C12         -3.2860     1.2570     1.3270 ca         1 OKY      -0.346500
     13 C14         -4.5350     1.0330    -0.7650 ca         1 OKY      -0.145000
     14 C16         -4.4130    -0.8210     0.7940 ca         1 OKY      -0.165300
     15 C18         -4.8700    -2.2530     0.9990 c5         1 OKY      -0.038100
     16 C19         -5.7030    -2.5470    -0.3140 c5         1 OKY       0.099000
     17 C23         -7.0390    -2.3310    -2.9000 c3         1 OKY      -0.178100
     18 C25          3.9680    -1.6860    -1.1680 ca         1 OKY      -0.155300
     19 C27          4.8970     0.5630    -1.3690 ca         1 OKY       0.147000
     20 C29          4.0490    -3.1940    -1.4320 c3         1 OKY       0.356300
     21 F30          3.4700    -3.9170    -0.4460 f          1 OKY      -0.111667
     22 F31          3.4240    -3.5250    -2.5840 f          1 OKY      -0.111667
     23 F32          5.3240    -3.6330    -1.5340 f          1 OKY      -0.111667
     24 N03          1.6160     0.7680     0.4060 nh         1 OKY      -0.796400
     25 N06         -0.6850     1.9020     1.9180 n3         1 OKY      -0.708500
     26 N20         -5.6190    -1.2690    -1.0790 n          1 OKY      -0.227400
     27 O10         -2.4880     3.6730     2.1640 o          1 OKY      -0.533500
     28 O11         -2.3760     1.7220     3.8020 o          1 OKY      -0.533500
     29 O22         -6.2050    -0.1020    -2.9950 o          1 OKY      -0.569100
     30 S09         -2.2710     2.2470     2.4360 sy         1 OKY       1.156600
     31 Cl28         6.1830     1.6320    -1.9130 cl         1 OKY      -0.191000
     32 H1          -3.4950     2.8300    -0.1700 ha         1 OKY       0.137000
     33 H2          -3.2890    -0.5060     2.6150 ha         1 OKY       0.133000
     34 H4           5.8620    -1.2040    -2.1310 ha         1 OKY       0.147000
     35 H5           3.7410     2.1650    -0.5220 ha         1 OKY       0.135000
     36 H6           1.8470     0.7640     2.5280 h1         1 OKY       0.054450
     37 H7           1.4580    -0.8210     1.8480 h1         1 OKY       0.054450
     38 H8          -0.8560    -0.1760     1.4350 h1         1 OKY       0.064700
     39 H9          -0.4390     0.1430     3.1220 h1         1 OKY       0.064700
     40 H10         -0.6170     3.4140     0.3970 h1         1 OKY       0.064700
     41 H11         -0.9640     1.7880    -0.2010 h1         1 OKY       0.064700
     42 H12          1.2750     2.4430    -0.8880 h1         1 OKY       0.054450
     43 H13          1.7330     2.8710     0.7710 h1         1 OKY       0.054450
     44 H14         -4.8770     1.4690    -1.6980 ha         1 OKY       0.155000
     45 H15         -4.0240    -2.9430     1.0990 hc         1 OKY       0.065700
     46 H16         -5.2650    -3.3800    -0.8790 h1         1 OKY       0.054200
     47 H17         -7.4890    -2.1150    -3.8750 hc         1 OKY       0.066700
     48 H18         -6.3800    -3.2040    -2.9510 hc         1 OKY       0.066700
     49 H19         -7.7990    -2.6400    -2.1730 hc         1 OKY       0.066700
     50 H20         -5.4880    -2.3620     1.8980 hc         1 OKY       0.065700
     51 H21         -6.7430    -2.7990    -0.0710 h1         1 OKY       0.054200
     52 C21         -6.2570    -1.1350    -2.3410 c          1 OKY       0.615100
     53 H3           2.0370    -1.7780    -0.1840 ha         1 OKY       0.134000
@<TRIPOS>BOND
     1     1    12 ar  
     2     1    13 ar  
     3     1    32 1   
     4     2    13 ar  
     5     2    14 ar  
     6     2    26 1   
     7     3    12 ar  
     8     3    14 ar  
     9     3    33 1   
    10     4     7 ar  
    11     4    18 ar  
    12     4    53 1   
    13     5    18 ar  
    14     5    19 ar  
    15     5    34 1   
    16     6     7 ar  
    17     6    19 ar  
    18     6    35 1   
    19     7    24 1   
    20     8     9 1   
    21     8    24 1   
    22     8    36 1   
    23     8    37 1   
    24     9    25 1   
    25     9    38 1   
    26     9    39 1   
    27    10    11 1   
    28    10    25 1   
    29    10    40 1   
    30    10    41 1   
    31    11    24 1   
    32    11    42 1   
    33    11    43 1   
    34    12    30 1   
    35    13    44 1   
    36    14    15 1   
    37    15    16 1   
    38    15    45 1   
    39    15    50 1   
    40    16    26 1   
    41    16    46 1   
    42    16    51 1   
    43    17    47 1   
    44    17    48 1   
    45    17    49 1   
    46    17    52 1   
    47    18    20 1   
    48    19    31 1   
    49    20    21 1   
    50    20    22 1   
    51    20    23 1   
    52    25    30 1   
    53    26    52 1   
    54    27    30 2   
    55    28    30 2   
    56    29    52 2   
@<TRIPOS>SUBSTRUCTURE
     1 OKY         1 TEMP              0 ****  ****    0 ROOT
