@<TRIPOS>MOLECULE
OKZ
   34    35     1     0     0
SMALL
abcg2


@<TRIPOS>ATOM
      1 C1           4.4760    -1.7030     1.4140 c3         1 OKZ      -0.079400
      2 C3           1.0080     0.7210    -0.5900 ca         1 OKZ      -0.309500
      3 O2          -3.8010     0.0060    -2.0980 o          1 OKZ      -0.457000
      4 O3          -2.9330    -0.6790     2.3120 o          1 OKZ      -0.457000
      5 C4           0.4400    -0.3280    -1.2980 ca         1 OKZ      -0.007500
      6 C2           4.4380    -3.2230     1.4850 c3         1 OKZ      -0.092100
      7 N1          -2.9910    -0.2460     0.0470 n          1 OKZ      -0.333600
      8 C8          -5.2360    -0.6540    -0.2580 cc         1 OKZ      -0.228700
      9 C5          -0.8890    -0.6540    -1.0780 ca         1 OKZ      -0.122000
     10 C6          -1.6370     0.0800    -0.1680 ca         1 OKZ       0.108600
     11 N            3.5440     0.2910     0.3620 n7         1 OKZ      -0.863300
     12 C            3.4830    -1.1710     0.3930 c3         1 OKZ       0.196800
     13 O            3.1410     0.5480    -2.0880 o          1 OKZ      -0.531000
     14 C10         -3.5380    -0.5970     1.2780 c          1 OKZ       0.559700
     15 C11         -1.0650     1.1380     0.5300 ca         1 OKZ      -0.122000
     16 C12          0.2660     1.4560     0.3260 ca         1 OKZ      -0.007500
     17 C7          -3.9730    -0.2600    -0.9400 c          1 OKZ       0.559700
     18 C9          -4.9840    -0.8480     1.0300 cd         1 OKZ      -0.228700
     19 O1           2.9150     2.5170    -0.5350 o          1 OKZ      -0.531000
     20 S            2.7280     1.1030    -0.8100 sy         1 OKZ       1.149600
     21 H1           4.2460    -1.2840     2.3970 hc         1 OKZ       0.050700
     22 H2           5.4790    -1.3620     1.1510 hc         1 OKZ       0.050700
     23 H3           1.0160    -0.8960    -2.0150 ha         1 OKZ       0.139500
     24 H4           4.6910    -3.6730     0.5240 hc         1 OKZ       0.037033
     25 H5           5.1500    -3.5950     2.2220 hc         1 OKZ       0.037033
     26 H6           3.4490    -3.5830     1.7700 hc         1 OKZ       0.037033
     27 H7          -6.1750    -0.7450    -0.7830 ha         1 OKZ       0.230000
     28 H8          -1.3310    -1.4840    -1.6110 ha         1 OKZ       0.131000
     29 H9           3.4060     0.7210     1.2720 hn         1 OKZ       0.478000
     30 H10          3.7360    -1.5480    -0.5980 h1         1 OKZ       0.052200
     31 H11          2.4750    -1.5250     0.6360 h1         1 OKZ       0.052200
     32 H12         -1.6580     1.7230     1.2190 ha         1 OKZ       0.131000
     33 H13          0.7040     2.2820     0.8690 ha         1 OKZ       0.139500
     34 H14         -5.6640    -1.1430     1.8140 ha         1 OKZ       0.230000
@<TRIPOS>BOND
     1     1     6 1   
     2     1    12 1   
     3     1    21 1   
     4     1    22 1   
     5     2     5 ar  
     6     2    16 ar  
     7     2    20 1   
     8     3    17 2   
     9     4    14 2   
    10     5     9 ar  
    11     5    23 1   
    12     6    24 1   
    13     6    25 1   
    14     6    26 1   
    15     7    10 1   
    16     7    14 1   
    17     7    17 1   
    18     8    17 1   
    19     8    18 2   
    20     8    27 1   
    21     9    10 ar  
    22     9    28 1   
    23    10    15 ar  
    24    11    12 1   
    25    11    20 1   
    26    11    29 1   
    27    12    30 1   
    28    12    31 1   
    29    13    20 2   
    30    14    18 1   
    31    15    16 ar  
    32    15    32 1   
    33    16    33 1   
    34    18    34 1   
    35    19    20 2   
@<TRIPOS>SUBSTRUCTURE
     1 OKZ         1 TEMP              0 ****  ****    0 ROOT
