@<TRIPOS>MOLECULE
OKZ
   34    35     1     0     0
SMALL
No Charge or Current Charge


@<TRIPOS>ATOM
      1 C1           4.2310    -1.9240     1.0330 c3         1 OKZ      -0.079400
      2 C3           1.1280     0.8450    -0.5820 ca         1 OKZ      -0.309500
      3 O2          -3.7120    -0.0370    -2.2650 o          1 OKZ      -0.457000
      4 O3          -2.8020    -1.2030     2.1370 o          1 OKZ      -0.457000
      5 C4           0.5240     0.0520    -1.5780 ca         1 OKZ      -0.007500
      6 C2           3.8380    -2.7940     2.2450 c3         1 OKZ      -0.092100
      7 N1          -2.8920    -0.4970    -0.1080 n          1 OKZ      -0.333600
      8 C8          -5.0620    -1.0120    -0.5200 cc         1 OKZ      -0.228700
      9 C5          -0.8010    -0.3870    -1.4190 ca         1 OKZ      -0.122000
     10 C6          -1.5380    -0.0440    -0.2690 ca         1 OKZ       0.108600
     11 N            3.6780     0.0040    -0.3970 n7         1 OKZ      -0.863300
     12 C            3.2480    -0.7650     0.7810 c3         1 OKZ       0.196800
     13 O            3.0950     1.6150    -2.2060 o          1 OKZ      -0.531000
     14 C10         -3.3990    -1.0290     1.0850 c          1 OKZ       0.559700
     15 C11         -0.9270     0.7490     0.7230 ca         1 OKZ      -0.122000
     16 C12          0.3970     1.1930     0.5720 ca         1 OKZ      -0.007500
     17 C7          -3.8530    -0.4580    -1.1270 c          1 OKZ       0.559700
     18 C9          -4.7970    -1.3480     0.7850 cd         1 OKZ      -0.228700
     19 O1           3.1800     2.3680     0.2500 o          1 OKZ      -0.531000
     20 S            2.8320     1.3900    -0.7830 sy         1 OKZ       1.149600
     21 H1           5.2380    -1.5210     1.1960 hc         1 OKZ       0.050700
     22 H2           4.2770    -2.5590     0.1400 hc         1 OKZ       0.050700
     23 H3           1.0810    -0.2330    -2.4700 ha         1 OKZ       0.139500
     24 H4           2.8470    -3.2410     2.0970 hc         1 OKZ       0.037033
     25 H5           4.5630    -3.6050     2.3840 hc         1 OKZ       0.037033
     26 H6           3.8140    -2.1930     3.1620 hc         1 OKZ       0.037033
     27 H7          -5.9910    -1.1110    -1.0730 ha         1 OKZ       0.230000
     28 H8          -1.2470    -1.0090    -2.1900 ha         1 OKZ       0.131000
     29 H9           4.6010     0.3960    -0.2210 hn         1 OKZ       0.478000
     30 H10          2.2450    -1.1880     0.6290 h1         1 OKZ       0.052200
     31 H11          3.2110    -0.1260     1.6750 h1         1 OKZ       0.052200
     32 H12         -1.4810     1.0350     1.6140 ha         1 OKZ       0.131000
     33 H13          0.8470     1.8040     1.3530 ha         1 OKZ       0.139500
     34 H14         -5.4550    -1.7830     1.5290 ha         1 OKZ       0.230000
@<TRIPOS>BOND
     1     1     6 1   
     2     1    12 1   
     3     1    21 1   
     4     1    22 1   
     5     2     5 ar  
     6     2    16 ar  
     7     2    20 1   
     8     3    17 2   
     9     4    14 2   
    10     5     9 ar  
    11     5    23 1   
    12     6    24 1   
    13     6    25 1   
    14     6    26 1   
    15     7    10 1   
    16     7    14 1   
    17     7    17 1   
    18     8    17 1   
    19     8    18 2   
    20     8    27 1   
    21     9    10 ar  
    22     9    28 1   
    23    10    15 ar  
    24    11    12 1   
    25    11    20 1   
    26    11    29 1   
    27    12    30 1   
    28    12    31 1   
    29    13    20 2   
    30    14    18 1   
    31    15    16 ar  
    32    15    32 1   
    33    16    33 1   
    34    18    34 1   
    35    19    20 2   
@<TRIPOS>SUBSTRUCTURE
     1 OKZ         1 TEMP              0 ****  ****    0 ROOT
