@<TRIPOS>MOLECULE
OL2
   53    55     1     0     0
SMALL
No Charge or Current Charge


@<TRIPOS>ATOM
      1 C01          3.6070     3.7910     2.5250 c3         1 OL2      -0.089100
      2 C02          3.0110     2.5060     1.9290 c3         1 OL2       0.164600
      3 O03          4.0330     1.8760     1.1400 os         1 OL2      -0.303100
      4 C04          3.8230     0.6920     0.4580 ca         1 OL2       0.149100
      5 C05          2.5760     0.0250     0.4910 ca         1 OL2      -0.192000
      6 C06          2.3530    -1.1800    -0.2300 cp         1 OL2      -0.163500
      7 C07          1.0130    -1.8770    -0.1900 cp         1 OL2       0.355500
      8 N08         -0.0800    -1.0610    -0.1460 nb         1 OL2      -0.630000
      9 C09         -1.3010    -1.6660    -0.1000 cp         1 OL2       0.286500
     10 C10         -2.5140    -0.7600    -0.0640 cp         1 OL2      -0.041500
     11 C11         -3.7650    -1.2170     0.4170 ca         1 OL2      -0.211500
     12 C12         -4.8970    -0.3750     0.4520 ca         1 OL2       0.149600
     13 O13         -6.1200    -0.8280     0.9250 os         1 OL2      -0.331600
     14 C14         -6.3260    -2.1700     1.4010 c3         1 OL2       0.146400
     15 C15         -4.8110     0.9640     0.0040 ca         1 OL2       0.017100
     16 O16         -5.9860     1.7170     0.0780 os         1 OL2      -0.330100
     17 C17         -6.1150     3.0920    -0.3250 c3         1 OL2       0.149900
     18 C18         -3.5600     1.4520    -0.4800 ca         1 OL2       0.149600
     19 O19         -3.4370     2.7600    -0.9230 os         1 OL2      -0.331600
     20 C20         -2.2020     3.3180    -1.4090 c3         1 OL2       0.146400
     21 C21         -2.4430     0.5860    -0.5040 ca         1 OL2      -0.211500
     22 C22         -1.4090    -3.1010    -0.0960 ca         1 OL2       0.337900
     23 N23         -0.3370    -3.9420    -0.1210 nb         1 OL2      -0.744000
     24 C24          0.8490    -3.3250    -0.1680 ca         1 OL2       0.561900
     25 N25          1.8150    -4.2750    -0.1330 nv         1 OL2      -1.044900
     26 C26          3.4270    -1.6820    -1.0070 ca         1 OL2      -0.157000
     27 C27          4.6680    -1.0270    -1.0450 ca         1 OL2      -0.079000
     28 C28          4.8770     0.1550    -0.3080 ca         1 OL2      -0.123600
     29 C29          6.2160     0.8360    -0.3620 c          1 OL2       0.720600
     30 O30          6.8660     0.9290     0.6700 o          1 OL2      -0.708500
     31 O31          6.6410     1.1720    -1.4590 o          1 OL2      -0.708500
     32 H011         3.9290     4.4730     1.7290 hc         1 OL2       0.039700
     33 H012         2.8580     4.3070     3.1370 hc         1 OL2       0.039700
     34 H013         4.4700     3.5590     3.1590 hc         1 OL2       0.039700
     35 H021         2.6840     1.8450     2.7420 h1         1 OL2       0.016700
     36 H022         2.1420     2.7610     1.3080 h1         1 OL2       0.016700
     37 H05          1.7580     0.4280     1.0800 ha         1 OL2       0.108000
     38 H26          3.2950    -2.5790    -1.6080 ha         1 OL2       0.100000
     39 H22         -2.3810    -3.5900    -0.0800 h4         1 OL2       0.014100
     40 H11         -3.8430    -2.2350     0.7830 ha         1 OL2       0.134500
     41 H21         -1.4900     0.9460    -0.8770 ha         1 OL2       0.134500
     42 H141        -5.6790    -2.3830     2.2610 h1         1 OL2       0.041200
     43 H142        -7.3680    -2.3030     1.7200 h1         1 OL2       0.041200
     44 H143        -6.1180    -2.9020     0.6100 h1         1 OL2       0.041200
     45 H171        -5.4500     3.7380     0.2620 h1         1 OL2       0.029367
     46 H172        -5.8870     3.2120    -1.3920 h1         1 OL2       0.029367
     47 H173        -7.1440     3.4360    -0.1630 h1         1 OL2       0.029367
     48 H201        -1.4260     3.2840    -0.6340 h1         1 OL2       0.041200
     49 H202        -1.8470     2.7720    -2.2920 h1         1 OL2       0.041200
     50 H203        -2.3480     4.3670    -1.6960 h1         1 OL2       0.041200
     51 H251         2.7380    -3.9950     0.1820 hn         1 OL2       0.480500
     52 H252         1.5040    -5.2030     0.1280 hn         1 OL2       0.480500
     53 H27          5.4740    -1.4360    -1.6510 ha         1 OL2       0.127000
@<TRIPOS>BOND
     1     1     2 1   
     2     1    32 1   
     3     1    33 1   
     4     1    34 1   
     5     2     3 1   
     6     2    35 1   
     7     2    36 1   
     8     3     4 1   
     9     4     5 ar  
    10     4    28 ar  
    11     5     6 ar  
    12     5    37 1   
    13     6     7 1   
    14     6    26 ar  
    15     7     8 ar  
    16     7    24 ar  
    17     8     9 ar  
    18     9    10 1   
    19     9    22 ar  
    20    10    11 ar  
    21    10    21 ar  
    22    11    12 ar  
    23    11    40 1   
    24    12    13 1   
    25    12    15 ar  
    26    13    14 1   
    27    14    42 1   
    28    14    43 1   
    29    14    44 1   
    30    15    16 1   
    31    15    18 ar  
    32    16    17 1   
    33    17    45 1   
    34    17    46 1   
    35    17    47 1   
    36    18    19 1   
    37    18    21 ar  
    38    19    20 1   
    39    20    48 1   
    40    20    49 1   
    41    20    50 1   
    42    21    41 1   
    43    22    23 ar  
    44    22    39 1   
    45    23    24 ar  
    46    24    25 1   
    47    25    51 1   
    48    25    52 1   
    49    26    27 ar  
    50    26    38 1   
    51    27    28 ar  
    52    27    53 1   
    53    28    29 1   
    54    29    30 1   
    55    29    31 1   
@<TRIPOS>SUBSTRUCTURE
     1 OL2         1 TEMP              0 ****  ****    0 ROOT
