@<TRIPOS>MOLECULE
OL2
   53    55     1     0     0
SMALL
abcg2


@<TRIPOS>ATOM
      1 C01          3.1770     3.9520     1.9310 c3         1 OL2      -0.089100
      2 C02          2.7210     2.5800     1.4940 c3         1 OL2       0.164600
      3 O03          3.8200     1.9280     0.8780 os         1 OL2      -0.303100
      4 C04          3.6480     0.7000     0.3570 ca         1 OL2       0.149100
      5 C05          2.4500     0.0000     0.4540 ca         1 OL2      -0.192000
      6 C06          2.3060    -1.2650    -0.1190 cp         1 OL2      -0.163500
      7 C07          0.9950    -1.9380    -0.0150 cp         1 OL2       0.355500
      8 N08         -0.0710    -1.1730    -0.0960 nb         1 OL2      -0.630000
      9 C09         -1.2970    -1.6910    -0.0290 cp         1 OL2       0.286500
     10 C10         -2.4360    -0.7570    -0.1210 cp         1 OL2      -0.041500
     11 C11         -3.7300    -1.1630     0.2020 ca         1 OL2      -0.211500
     12 C12         -4.7850    -0.2600     0.1040 ca         1 OL2       0.149600
     13 O13         -6.0630    -0.5550     0.3970 os         1 OL2      -0.331600
     14 C14         -6.3750    -1.8700     0.8100 c3         1 OL2       0.146400
     15 C15         -4.5540     1.0510    -0.3200 ca         1 OL2       0.017100
     16 O16         -5.5900     1.9200    -0.4440 os         1 OL2      -0.330100
     17 C17         -5.8520     2.6880     0.7230 c3         1 OL2       0.149900
     18 C18         -3.2520     1.4560    -0.6260 ca         1 OL2       0.149600
     19 O19         -3.1170     2.7370    -1.0100 os         1 OL2      -0.331600
     20 C20         -1.8290     3.2010    -1.3600 c3         1 OL2       0.146400
     21 C21         -2.1990     0.5530    -0.5310 ca         1 OL2      -0.211500
     22 C22         -1.4270    -3.0680     0.0990 ca         1 OL2       0.337900
     23 N23         -0.3800    -3.8660     0.2270 nb         1 OL2      -0.744000
     24 C24          0.8380    -3.3360     0.2010 ca         1 OL2       0.561900
     25 N25          1.8850    -4.1820     0.3650 nv         1 OL2      -1.044900
     26 C26          3.3720    -1.8110    -0.8270 ca         1 OL2      -0.157000
     27 C27          4.5530    -1.0920    -0.9450 ca         1 OL2      -0.079000
     28 C28          4.7330     0.1460    -0.3450 ca         1 OL2      -0.123600
     29 C29          6.0860     0.8350    -0.4660 c          1 OL2       0.720600
     30 O30          6.5720     1.3060     0.5760 o          1 OL2      -0.708500
     31 O31          6.5990     0.8230    -1.6020 o          1 OL2      -0.708500
     32 H011         3.5140     4.5490     1.0830 hc         1 OL2       0.039700
     33 H012         2.3470     4.4780     2.4020 hc         1 OL2       0.039700
     34 H013         3.9890     3.8890     2.6560 hc         1 OL2       0.039700
     35 H021         2.3680     2.0060     2.3570 h1         1 OL2       0.016700
     36 H022         1.8840     2.6630     0.7910 h1         1 OL2       0.016700
     37 H05          1.6000     0.4200     0.9740 ha         1 OL2       0.108000
     38 H26          3.2800    -2.7680    -1.3240 ha         1 OL2       0.100000
     39 H22         -2.3960    -3.5540     0.0970 h4         1 OL2       0.014100
     40 H11         -3.9120    -2.1710     0.5470 ha         1 OL2       0.134500
     41 H21         -1.1870     0.8440    -0.7720 ha         1 OL2       0.134500
     42 H141        -5.8560    -2.1440     1.7320 h1         1 OL2       0.041200
     43 H142        -7.4470    -1.8890     0.9940 h1         1 OL2       0.041200
     44 H143        -6.1370    -2.6080     0.0390 h1         1 OL2       0.041200
     45 H171        -6.1190     2.0550     1.5730 h1         1 OL2       0.029367
     46 H172        -4.9970     3.3080     1.0020 h1         1 OL2       0.029367
     47 H173        -6.6950     3.3390     0.4970 h1         1 OL2       0.029367
     48 H201        -1.1270     3.1290    -0.5250 h1         1 OL2       0.041200
     49 H202        -1.4180     2.6570    -2.2140 h1         1 OL2       0.041200
     50 H203        -1.9410     4.2480    -1.6320 h1         1 OL2       0.041200
     51 H251         2.7680    -3.8080     0.6720 hn         1 OL2       0.480500
     52 H252         1.6620    -5.0910     0.7380 hn         1 OL2       0.480500
     53 H27          5.3660    -1.5130    -1.5220 ha         1 OL2       0.127000
@<TRIPOS>BOND
     1     1     2 1   
     2     1    32 1   
     3     1    33 1   
     4     1    34 1   
     5     2     3 1   
     6     2    35 1   
     7     2    36 1   
     8     3     4 1   
     9     4     5 ar  
    10     4    28 ar  
    11     5     6 ar  
    12     5    37 1   
    13     6     7 1   
    14     6    26 ar  
    15     7     8 ar  
    16     7    24 ar  
    17     8     9 ar  
    18     9    10 1   
    19     9    22 ar  
    20    10    11 ar  
    21    10    21 ar  
    22    11    12 ar  
    23    11    40 1   
    24    12    13 1   
    25    12    15 ar  
    26    13    14 1   
    27    14    42 1   
    28    14    43 1   
    29    14    44 1   
    30    15    16 1   
    31    15    18 ar  
    32    16    17 1   
    33    17    45 1   
    34    17    46 1   
    35    17    47 1   
    36    18    19 1   
    37    18    21 ar  
    38    19    20 1   
    39    20    48 1   
    40    20    49 1   
    41    20    50 1   
    42    21    41 1   
    43    22    23 ar  
    44    22    39 1   
    45    23    24 ar  
    46    24    25 1   
    47    25    51 1   
    48    25    52 1   
    49    26    27 ar  
    50    26    38 1   
    51    27    28 ar  
    52    27    53 1   
    53    28    29 1   
    54    29    30 1   
    55    29    31 1   
@<TRIPOS>SUBSTRUCTURE
     1 OL2         1 TEMP              0 ****  ****    0 ROOT
