@<TRIPOS>MOLECULE
OL6
   49    51     1     0     0
SMALL
abcg2


@<TRIPOS>ATOM
      1 C4         -13.4770    18.5480   -26.8890 c          1 OL6       0.734000
      2 C5         -16.7470    17.4890   -25.4080 c5         1 OL6       0.393500
      3 C6         -18.0180    18.3490   -25.5780 c3         1 OL6      -0.034300
      4 C7         -19.7410    16.9140   -24.5370 c          1 OL6       0.590100
      5 C9         -21.9590    14.9560   -26.7010 ca         1 OL6       0.196100
      6 C10        -21.8340    14.6390   -28.0870 ca         1 OL6      -0.063000
      7 C15        -22.8920    13.9360   -28.7170 ca         1 OL6      -0.006000
      8 C11        -20.6950    14.9990   -28.8460 ca         1 OL6      -0.034000
      9 C12        -20.6150    14.6740   -30.1740 ca         1 OL6      -0.133000
     10 C13        -21.6650    13.9770   -30.8040 ca         1 OL6      -0.094000
     11 C3         -14.9570    18.0950   -26.8600 c5         1 OL6       0.031500
     12 O1         -13.0270    18.8670   -28.0060 o          1 OL6      -0.742000
     13 O2         -20.9170    15.6270   -26.1780 os         1 OL6      -0.318100
     14 C8         -20.9480    16.0370   -24.8310 c3         1 OL6       0.064600
     15 C14        -22.7760    13.6190   -30.0910 ca         1 OL6      -0.142000
     16 C17        -24.1140    13.8830   -26.6430 ca         1 OL6      -0.067000
     17 C18        -23.0730    14.5800   -25.9950 ca         1 OL6      -0.248000
     18 N          -15.5100    18.1920   -25.5270 n7         1 OL6      -0.810400
     19 C          -15.2400    16.5900   -28.9030 c3         1 OL6      -0.064600
     20 O          -12.8620    18.5310   -25.8050 o          1 OL6      -0.742000
     21 C1         -15.1250    16.6360   -27.3850 c5         1 OL6       0.139000
     22 C16        -24.0360    13.5670   -27.9680 ca         1 OL6      -0.166000
     23 C19        -18.0600    19.2300   -26.8560 c          1 OL6       0.728000
     24 C2         -14.0220    15.6980   -26.9030 c3         1 OL6      -0.064600
     25 N1         -19.1720    17.4820   -25.5970 ns         1 OL6      -0.425900
     26 O3         -19.3930    17.0810   -23.3740 o          1 OL6      -0.667100
     27 O4         -17.5020    20.3360   -26.7800 o          1 OL6      -0.716000
     28 O5         -18.6650    18.7490   -27.8360 o          1 OL6      -0.716000
     29 S          -16.7240    16.1060   -26.6490 ss         1 OL6      -0.668000
     30 H          -16.8070    17.0420   -24.4140 h2         1 OL6       0.040700
     31 H1         -18.0700    19.0040   -24.7050 h1         1 OL6       0.062700
     32 H13        -19.8760    15.5300   -28.3810 ha         1 OL6       0.175000
     33 H14        -19.7390    14.9530   -30.7450 ha         1 OL6       0.125000
     34 H15        -21.5890    13.7260   -31.8540 ha         1 OL6       0.096000
     35 H8         -15.5230    18.7450   -27.5310 h1         1 OL6       0.105700
     36 H11        -21.8530    16.6170   -24.6110 h1         1 OL6       0.043700
     37 H12        -20.9300    15.1780   -24.1540 h1         1 OL6       0.043700
     38 H16        -23.5850    13.0810   -30.5700 ha         1 OL6       0.093000
     39 H18        -24.9840    13.5980   -26.0660 ha         1 OL6       0.091000
     40 H19        -23.1750    14.8060   -24.9420 ha         1 OL6       0.114000
     41 H9         -14.8250    17.8390   -24.8720 hn         1 OL6       0.428000
     42 H4         -16.0400    17.2440   -29.2530 hc         1 OL6       0.029533
     43 H2         -14.3050    16.9170   -29.3590 hc         1 OL6       0.029533
     44 H3         -15.4480    15.5800   -29.2590 hc         1 OL6       0.029533
     45 H17        -24.8390    13.0310   -28.4590 ha         1 OL6       0.096000
     46 H5         -13.8880    15.7480   -25.8220 hc         1 OL6       0.029533
     47 H6         -14.2590    14.6650   -27.1610 hc         1 OL6       0.029533
     48 H7         -13.0690    15.9430   -27.3760 hc         1 OL6       0.029533
     49 H10        -19.5430    17.3220   -26.5240 hn         1 OL6       0.357500
@<TRIPOS>BOND
     1     1    11 1   
     2     1    12 1   
     3     1    20 1   
     4     2     3 1   
     5     2    18 1   
     6     2    29 1   
     7     2    30 1   
     8     3    23 1   
     9     3    25 1   
    10     3    31 1   
    11     4    14 1   
    12     4    25 1   
    13     4    26 2   
    14     5     6 ar  
    15     5    13 1   
    16     5    17 ar  
    17     6     7 ar  
    18     6     8 ar  
    19     7    15 ar  
    20     7    22 ar  
    21     8     9 ar  
    22     8    32 1   
    23     9    10 ar  
    24     9    33 1   
    25    10    15 ar  
    26    10    34 1   
    27    11    18 1   
    28    11    21 1   
    29    11    35 1   
    30    13    14 1   
    31    14    36 1   
    32    14    37 1   
    33    15    38 1   
    34    16    17 ar  
    35    16    22 ar  
    36    16    39 1   
    37    17    40 1   
    38    18    41 1   
    39    19    21 1   
    40    19    42 1   
    41    19    43 1   
    42    19    44 1   
    43    21    24 1   
    44    21    29 1   
    45    22    45 1   
    46    23    27 1   
    47    23    28 1   
    48    24    46 1   
    49    24    47 1   
    50    24    48 1   
    51    25    49 1   
@<TRIPOS>SUBSTRUCTURE
     1 OL6         1 TEMP              0 ****  ****    0 ROOT
