@<TRIPOS>MOLECULE
OL6
   49    51     1     0     0
SMALL
No Charge or Current Charge


@<TRIPOS>ATOM
      1 C4         -13.3170    18.7110   -26.7990 c          1 OL6       0.734000
      2 C5         -16.6910    17.3490   -25.4220 c5         1 OL6       0.393500
      3 C6         -17.9150    18.3090   -25.5330 c3         1 OL6      -0.034300
      4 C7         -19.7720    16.8820   -24.5270 c          1 OL6       0.590100
      5 C9         -22.1310    14.9760   -26.7960 ca         1 OL6       0.196100
      6 C10        -22.0110    14.5040   -28.1250 ca         1 OL6      -0.063000
      7 C15        -23.0830    13.7940   -28.7160 ca         1 OL6      -0.006000
      8 C11        -20.8340    14.7270   -28.8760 ca         1 OL6      -0.034000
      9 C12        -20.7340    14.2510   -30.1950 ca         1 OL6      -0.133000
     10 C13        -21.8030    13.5490   -30.7760 ca         1 OL6      -0.094000
     11 C3         -14.8070    18.1860   -26.7070 c5         1 OL6       0.031500
     12 O1         -13.0110    19.4590   -27.7180 o          1 OL6      -0.742000
     13 O2         -21.0750    15.6720   -26.2380 os         1 OL6      -0.318100
     14 C8         -21.0830    16.1410   -24.8700 c3         1 OL6       0.064600
     15 C14        -22.9750    13.3210   -30.0370 ca         1 OL6      -0.142000
     16 C17        -24.3780    14.0250   -26.6660 ca         1 OL6      -0.067000
     17 C18        -23.3200    14.7310   -26.0720 ca         1 OL6      -0.248000
     18 N          -15.3630    17.9840   -25.3120 n7         1 OL6      -0.810400
     19 C          -14.9820    16.9230   -28.9630 c3         1 OL6      -0.064600
     20 O          -12.5270    18.4620   -25.8950 o          1 OL6      -0.742000
     21 C1         -14.9270    16.8000   -27.4200 c5         1 OL6       0.139000
     22 C16        -24.2600    13.5590   -27.9830 ca         1 OL6      -0.166000
     23 C19        -17.8370    19.3100   -26.7150 c          1 OL6       0.728000
     24 C2         -13.8400    15.7600   -27.0330 c3         1 OL6      -0.064600
     25 N1         -19.2180    17.5950   -25.5680 ns         1 OL6      -0.425900
     26 O3         -19.2630    16.8580   -23.4110 o          1 OL6      -0.667100
     27 O4         -17.4860    20.4570   -26.4680 o          1 OL6      -0.716000
     28 O5         -18.3650    19.0030   -27.7780 o          1 OL6      -0.716000
     29 S          -16.5610    16.1380   -26.8270 ss         1 OL6      -0.668000
     30 H          -16.8550    16.7580   -24.5120 h2         1 OL6       0.040700
     31 H1         -17.9120    18.9190   -24.6210 h1         1 OL6       0.062700
     32 H13        -19.9930    15.2660   -28.4440 ha         1 OL6       0.175000
     33 H14        -19.8260    14.4260   -30.7670 ha         1 OL6       0.125000
     34 H15        -21.7230    13.1820   -31.7960 ha         1 OL6       0.096000
     35 H8         -15.4010    18.9290   -27.2510 h1         1 OL6       0.105700
     36 H11        -21.9090    16.8460   -24.7140 h1         1 OL6       0.043700
     37 H12        -21.1940    15.3020   -24.1720 h1         1 OL6       0.043700
     38 H16        -23.7980    12.7760   -30.4920 ha         1 OL6       0.093000
     39 H18        -25.2920    13.8390   -26.1050 ha         1 OL6       0.091000
     40 H19        -23.4410    15.0800   -25.0510 ha         1 OL6       0.114000
     41 H9         -14.7440    17.3250   -24.8300 hn         1 OL6       0.428000
     42 H4         -15.7770    17.6090   -29.2790 hc         1 OL6       0.029533
     43 H2         -14.0360    17.3020   -29.3670 hc         1 OL6       0.029533
     44 H3         -15.1780    15.9520   -29.4340 hc         1 OL6       0.029533
     45 H17        -25.0860    13.0140   -28.4350 ha         1 OL6       0.096000
     46 H5         -13.7670    15.6370   -25.9460 hc         1 OL6       0.029533
     47 H6         -14.0660    14.7750   -27.4600 hc         1 OL6       0.029533
     48 H7         -12.8500    16.0530   -27.4040 hc         1 OL6       0.029533
     49 H10        -19.6960    17.5280   -26.4600 hn         1 OL6       0.357500
@<TRIPOS>BOND
     1     1    11 1   
     2     1    12 1   
     3     1    20 1   
     4     2     3 1   
     5     2    18 1   
     6     2    29 1   
     7     2    30 1   
     8     3    23 1   
     9     3    25 1   
    10     3    31 1   
    11     4    14 1   
    12     4    25 1   
    13     4    26 2   
    14     5     6 ar  
    15     5    13 1   
    16     5    17 ar  
    17     6     7 ar  
    18     6     8 ar  
    19     7    15 ar  
    20     7    22 ar  
    21     8     9 ar  
    22     8    32 1   
    23     9    10 ar  
    24     9    33 1   
    25    10    15 ar  
    26    10    34 1   
    27    11    18 1   
    28    11    21 1   
    29    11    35 1   
    30    13    14 1   
    31    14    36 1   
    32    14    37 1   
    33    15    38 1   
    34    16    17 ar  
    35    16    22 ar  
    36    16    39 1   
    37    17    40 1   
    38    18    41 1   
    39    19    21 1   
    40    19    42 1   
    41    19    43 1   
    42    19    44 1   
    43    21    24 1   
    44    21    29 1   
    45    22    45 1   
    46    23    27 1   
    47    23    28 1   
    48    24    46 1   
    49    24    47 1   
    50    24    48 1   
    51    25    49 1   
@<TRIPOS>SUBSTRUCTURE
     1 OL6         1 TEMP              0 ****  ****    0 ROOT
