@<TRIPOS>MOLECULE
OL7
  117   123     1     0     0
SMALL
abcg2


@<TRIPOS>ATOM
      1 C10        -29.8730    -0.7980    -6.1810 c          1 OL7       0.597100
      2 C17        -30.1250    -2.9420    -8.3470 c3         1 OL7      -0.081400
      3 C21        -26.1240    -1.8780     0.0510 ca         1 OL7       0.308000
      4 C22        -26.6330    -0.9720     1.0010 ca         1 OL7       0.165000
      5 C24        -28.3660    -0.4210    -0.3870 ca         1 OL7       0.318300
      6 C26        -24.3080    -2.4380     1.5260 ca         1 OL7       0.166100
      7 C28        -25.9540    -0.8160     2.2270 ca         1 OL7      -0.029000
      8 C01        -27.6800    -0.7080    -5.1750 c5         1 OL7       0.030700
      9 C02        -26.9240    -1.6920    -4.2740 c5         1 OL7      -0.111400
     10 C03        -28.0310    -2.3650    -3.4800 c5         1 OL7       0.165300
     11 C04        -29.1360    -2.5230    -4.5060 c5         1 OL7       0.100000
     12 C06        -27.0030    -0.5590    -6.5300 c          1 OL7       0.592100
     13 C09        -25.8870     0.9240    -8.0550 cx         1 OL7      -0.067600
     14 C11        -31.1640    -1.5610    -6.4840 c3         1 OL7       0.049700
     15 C14        -32.8430    -0.7250    -4.9110 c          1 OL7       0.597100
     16 C16        -31.1970    -1.9220    -7.9690 c3         1 OL7      -0.086400
     17 C19        -27.8350    -1.3620    -1.3400 ca         1 OL7       0.555300
     18 C25        -24.9540    -2.6100     0.3210 ca         1 OL7      -0.204000
     19 C27        -24.8210    -1.5320     2.4860 ca         1 OL7      -0.140000
     20 C30        -22.6220    -4.0090     0.9820 c3         1 OL7       0.145900
     21 C32        -24.6060     0.2850    -8.4760 c          1 OL7       0.681100
     22 C38        -22.6820    -2.3240    -6.2580 cx         1 OL7      -0.397000
     23 C39        -22.4180    -1.6590    -4.9340 cx         1 OL7      -0.080400
     24 C40        -21.4010    -2.5790    -5.5210 cx         1 OL7      -0.080400
     25 C41        -23.7190    -3.4090    -6.3920 c3         1 OL7      -0.044100
     26 C42        -26.9770     1.1690    -9.1010 cx         1 OL7      -0.034500
     27 C43        -26.9200     0.7070   -10.5030 c2         1 OL7      -0.193200
     28 C44        -27.8000    -0.1300   -11.0560 c2         1 OL7      -0.187200
     29 C45        -28.9430    -0.8280   -10.3870 c3         1 OL7      -0.049200
     30 C46        -28.7980    -2.3490   -10.4690 c3         1 OL7      -0.073400
     31 C47        -26.1700     2.3030    -8.5820 cx         1 OL7      -0.097400
     32 C48        -29.9570    -3.1370    -9.8600 c3         1 OL7      -0.066400
     33 C49        -33.9170     0.3410    -4.6900 c3         1 OL7       0.063700
     34 C54        -37.3020    -2.7490    -3.3850 c3         1 OL7       0.171900
     35 C55        -33.3210     1.6360    -4.1020 c6         1 OL7      -0.070700
     36 C56        -32.5050     1.4320    -2.8240 c6         1 OL7      -0.077400
     37 C57        -32.0500     2.7710    -2.2540 c6         1 OL7      -0.073400
     38 C58        -31.2540     3.5720    -3.2780 c6         1 OL7      -0.075400
     39 C59        -32.0440     3.7560    -4.5690 c6         1 OL7      -0.073400
     40 C60        -32.5030     2.4140    -5.1330 c6         1 OL7      -0.077400
     41 N05        -28.9780    -1.3410    -5.3440 n          1 OL7      -0.392800
     42 N08        -26.3570     0.6110    -6.7470 ns         1 OL7      -0.476900
     43 N13        -32.2940    -0.7310    -6.1370 ns         1 OL7      -0.489900
     44 N20        -26.7630    -2.0510    -1.1330 nb         1 OL7      -0.756000
     45 N23        -27.7570    -0.2560     0.7470 nb         1 OL7      -0.612000
     46 N33        -23.9780    -0.4120    -7.4740 ns         1 OL7      -0.573300
     47 N50        -34.9380    -0.1630    -3.8100 ns         1 OL7      -0.489900
     48 O07        -26.9920    -1.4640    -7.3420 o          1 OL7      -0.567100
     49 O12        -29.6560     0.2750    -6.7320 o          1 OL7      -0.627100
     50 O15        -32.5000    -1.4860    -4.0210 o          1 OL7      -0.606100
     51 O18        -28.5300    -1.4900    -2.4660 os         1 OL7      -0.449300
     52 O29        -23.1880    -3.0810     1.8880 os         1 OL7      -0.334100
     53 O34        -24.1450     0.3770    -9.5910 o          1 OL7      -0.539100
     54 O36        -22.6790    -2.0710    -8.8910 o          1 OL7      -0.515000
     55 O37        -21.4180    -0.3820    -7.5510 o          1 OL7      -0.515000
     56 O52        -35.5340    -1.8580    -5.1840 o          1 OL7      -0.545000
     57 O53        -36.4940    -1.5980    -3.1610 os         1 OL7      -0.454100
     58 S35        -22.5520    -1.2810    -7.6800 s6         1 OL7       1.254800
     59 H172       -30.3870    -3.8940    -7.8770 hc         1 OL7       0.049200
     60 H171       -29.1590    -2.6560    -7.9230 hc         1 OL7       0.049200
     61 H281       -26.3480    -0.1210     2.9580 ha         1 OL7       0.136000
     62 H011       -27.7850     0.2660    -4.6880 h1         1 OL7       0.072700
     63 H021       -26.4230    -2.4560    -4.8730 hc         1 OL7       0.075700
     64 H022       -26.1730    -1.2030    -3.6570 hc         1 OL7       0.075700
     65 H031       -27.7310    -3.3200    -3.0470 h1         1 OL7       0.091700
     66 H042       -30.1210    -2.5610    -4.0440 h1         1 OL7       0.081200
     67 H041       -28.9750    -3.4430    -5.0720 h1         1 OL7       0.081200
     68 H111       -31.2340    -2.4790    -5.9020 h1         1 OL7       0.086700
     69 H161       -31.0990    -1.0110    -8.5650 hc         1 OL7       0.058700
     70 H162       -32.1840    -2.3340    -8.1950 hc         1 OL7       0.058700
     71 H251       -24.5950    -3.2900    -0.4400 ha         1 OL7       0.133000
     72 H271       -24.3010    -1.4150     3.4290 ha         1 OL7       0.135000
     73 H303       -21.7290    -4.4030     1.4610 h1         1 OL7       0.045033
     74 H301       -23.3040    -4.8350     0.7680 h1         1 OL7       0.045033
     75 H302       -22.3370    -3.5340     0.0400 h1         1 OL7       0.045033
     76 H313       -29.8270     1.0260     0.1350 hc         1 OL7       0.059367
     77 H311       -29.4740     0.9630    -1.5970 hc         1 OL7       0.059367
     78 H312       -30.4560    -0.2910    -0.8660 hc         1 OL7       0.059367
     79 H391       -23.0250    -2.0090    -4.1090 hc         1 OL7       0.087950
     80 H392       -22.1850    -0.6020    -4.9040 hc         1 OL7       0.087950
     81 H402       -21.2960    -3.5740    -5.1090 hc         1 OL7       0.087950
     82 H401       -20.4820    -2.1480    -5.8920 hc         1 OL7       0.087950
     83 H411       -23.7910    -3.9460    -5.4470 hc         1 OL7       0.054367
     84 H412       -24.7070    -3.0120    -6.6270 hc         1 OL7       0.054367
     85 H413       -23.4460    -4.1270    -7.1640 hc         1 OL7       0.054367
     86 H421       -27.9520     1.0730    -8.6380 hc         1 OL7       0.102700
     87 H431       -26.1350     1.1160   -11.1270 ha         1 OL7       0.189000
     88 H441       -27.6710    -0.3580   -12.1110 ha         1 OL7       0.168000
     89 H451       -29.0310    -0.5230    -9.3440 hc         1 OL7       0.047700
     90 H452       -29.8790    -0.5370   -10.8800 hc         1 OL7       0.047700
     91 H461       -28.6870    -2.6400   -11.5190 hc         1 OL7       0.047700
     92 H462       -27.8680    -2.6360    -9.9690 hc         1 OL7       0.047700
     93 H472       -25.4170     2.7370    -9.2280 hc         1 OL7       0.086200
     94 H471       -26.6340     3.0020    -7.8970 hc         1 OL7       0.086200
     95 H482       -30.8880    -2.8790   -10.3760 hc         1 OL7       0.037200
     96 H481       -29.7840    -4.1950   -10.0680 hc         1 OL7       0.037200
     97 H491       -34.3690     0.6000    -5.6540 h1         1 OL7       0.069700
     98 H543       -37.9170    -2.8560    -2.4960 h1         1 OL7       0.048700
     99 H542       -37.9470    -2.6270    -4.2540 h1         1 OL7       0.048700
    100 H541       -36.6970    -3.6470    -3.5100 h1         1 OL7       0.048700
    101 H551       -34.1910     2.2560    -3.8470 hc         1 OL7       0.055700
    102 H561       -33.0790     0.8860    -2.0700 hc         1 OL7       0.050200
    103 H562       -31.6280     0.8150    -3.0420 hc         1 OL7       0.050200
    104 H572       -32.9260     3.3480    -1.9390 hc         1 OL7       0.040950
    105 H571       -31.4510     2.6050    -1.3550 hc         1 OL7       0.040950
    106 H581       -30.3190     3.0460    -3.5020 hc         1 OL7       0.040700
    107 H582       -30.9700     4.5420    -2.8630 hc         1 OL7       0.040700
    108 H592       -31.4390     4.2800    -5.3120 hc         1 OL7       0.040950
    109 H591       -32.9160     4.3900    -4.3770 hc         1 OL7       0.040950
    110 H601       -31.6210     1.8380    -5.4310 hc         1 OL7       0.050200
    111 H602       -33.0950     2.5700    -6.0390 hc         1 OL7       0.050200
    112 H081       -26.4330     1.3540    -6.0690 hn         1 OL7       0.322500
    113 H131       -32.6270    -0.0770    -6.8280 hn         1 OL7       0.326500
    114 H331       -24.2840    -0.2770    -6.5180 hn         1 OL7       0.336500
    115 H501       -35.0430     0.2400    -2.8930 hn         1 OL7       0.336500
    116 C31        -29.5990     0.3610    -0.6950 c3         1 OL7      -0.139400
    117 C51        -35.6460    -1.2590    -4.1330 c          1 OL7       0.641100
@<TRIPOS>BOND
     1     1    14 1   
     2     1    41 1   
     3     1    49 2   
     4     2    16 1   
     5     2    32 1   
     6     2    59 1   
     7     2    60 1   
     8     3     4 ar  
     9     3    18 ar  
    10     3    44 ar  
    11     4     7 ar  
    12     4    45 ar  
    13     5    17 ar  
    14     5    45 ar  
    15     5   116 1   
    16     6    18 ar  
    17     6    19 ar  
    18     6    52 1   
    19     7    19 ar  
    20     7    61 1   
    21     8     9 1   
    22     8    12 1   
    23     8    41 1   
    24     8    62 1   
    25     9    10 1   
    26     9    63 1   
    27     9    64 1   
    28    10    11 1   
    29    10    51 1   
    30    10    65 1   
    31    11    41 1   
    32    11    66 1   
    33    11    67 1   
    34    12    42 1   
    35    12    48 2   
    36    13    21 1   
    37    13    26 1   
    38    13    31 1   
    39    13    42 1   
    40    14    16 1   
    41    14    43 1   
    42    14    68 1   
    43    15    33 1   
    44    15    43 1   
    45    15    50 2   
    46    16    69 1   
    47    16    70 1   
    48    17    44 ar  
    49    17    51 1   
    50    18    71 1   
    51    19    72 1   
    52    20    52 1   
    53    20    73 1   
    54    20    74 1   
    55    20    75 1   
    56    21    46 1   
    57    21    53 2   
    58    22    23 1   
    59    22    24 1   
    60    22    25 1   
    61    22    58 1   
    62    23    24 1   
    63    23    79 1   
    64    23    80 1   
    65    24    81 1   
    66    24    82 1   
    67    25    83 1   
    68    25    84 1   
    69    25    85 1   
    70    26    27 1   
    71    26    31 1   
    72    26    86 1   
    73    27    28 2   
    74    27    87 1   
    75    28    29 1   
    76    28    88 1   
    77    29    30 1   
    78    29    89 1   
    79    29    90 1   
    80    30    32 1   
    81    30    91 1   
    82    30    92 1   
    83    31    93 1   
    84    31    94 1   
    85    32    95 1   
    86    32    96 1   
    87    33    35 1   
    88    33    47 1   
    89    33    97 1   
    90    34    57 1   
    91    34    98 1   
    92    34    99 1   
    93    34   100 1   
    94    35    36 1   
    95    35    40 1   
    96    35   101 1   
    97    36    37 1   
    98    36   102 1   
    99    36   103 1   
   100    37    38 1   
   101    37   104 1   
   102    37   105 1   
   103    38    39 1   
   104    38   106 1   
   105    38   107 1   
   106    39    40 1   
   107    39   108 1   
   108    39   109 1   
   109    40   110 1   
   110    40   111 1   
   111    42   112 1   
   112    43   113 1   
   113    46    58 1   
   114    46   114 1   
   115    47   115 1   
   116    47   117 1   
   117    54    58 2   
   118    55    58 2   
   119    56   117 2   
   120    57   117 1   
   121    76   116 1   
   122    77   116 1   
   123    78   116 1   
@<TRIPOS>SUBSTRUCTURE
     1 OL7         1 TEMP              0 ****  ****    0 ROOT
