@<TRIPOS>MOLECULE
OL7
  117   123     1     0     0
SMALL
No Charge or Current Charge


@<TRIPOS>ATOM
      1 C10        -29.8340    -0.8300    -6.0860 c          1 OL7       0.597100
      2 C17        -30.1190    -3.0900    -8.2630 c3         1 OL7      -0.081400
      3 C21        -25.6610    -1.4260    -0.0160 ca         1 OL7       0.308000
      4 C22        -25.5220    -0.0560     0.3940 ca         1 OL7       0.165000
      5 C24        -27.1740     0.5480    -1.1030 ca         1 OL7       0.318300
      6 C26        -23.9140    -2.0750     1.5670 ca         1 OL7       0.166100
      7 C28        -24.5760     0.2610     1.3850 ca         1 OL7      -0.029000
      8 C01        -27.4520    -0.9120    -5.2660 c5         1 OL7       0.030700
      9 C02        -26.7600    -1.8980    -4.2750 c5         1 OL7      -0.111400
     10 C03        -27.9180    -2.2750    -3.3020 c5         1 OL7       0.165300
     11 C04        -29.1010    -2.4840    -4.2880 c5         1 OL7       0.100000
     12 C06        -26.7390    -0.9760    -6.6510 c          1 OL7       0.592100
     13 C09        -25.7500     0.5690    -8.3320 cx         1 OL7      -0.067600
     14 C11        -31.1510    -1.5990    -6.4000 c3         1 OL7       0.049700
     15 C14        -33.4820    -1.1290    -5.5370 c          1 OL7       0.597100
     16 C16        -31.1980    -2.0410    -7.8840 c3         1 OL7      -0.086400
     17 C19        -27.3040    -0.8140    -1.5300 ca         1 OL7       0.555300
     18 C25        -24.8560    -2.4130     0.5770 ca         1 OL7      -0.204000
     19 C27        -23.7780    -0.7390     1.9660 ca         1 OL7      -0.140000
     20 C30        -23.1610    -4.4110     1.8400 c3         1 OL7       0.145900
     21 C32        -24.6020    -0.2950    -8.8880 c          1 OL7       0.681100
     22 C38        -21.7650    -1.6960    -6.3370 cx         1 OL7      -0.397000
     23 C39        -20.9730    -0.5950    -5.6540 cx         1 OL7      -0.080400
     24 C40        -20.2930    -1.8970    -6.0200 cx         1 OL7      -0.080400
     25 C41        -22.8250    -2.4710    -5.5430 c3         1 OL7      -0.044100
     26 C42        -26.8450     1.1380    -9.2260 cx         1 OL7      -0.034500
     27 C43        -26.9910     0.7260   -10.6530 c2         1 OL7      -0.193200
     28 C44        -27.8930    -0.1550   -11.1270 c2         1 OL7      -0.187200
     29 C45        -28.9510    -0.9080   -10.3320 c3         1 OL7      -0.049200
     30 C46        -28.7840    -2.4410   -10.4290 c3         1 OL7      -0.073400
     31 C47        -25.7190     2.0250    -8.7560 cx         1 OL7      -0.097400
     32 C48        -29.9210    -3.2850    -9.7890 c3         1 OL7      -0.066400
     33 C49        -34.4310     0.0160    -5.0690 c3         1 OL7       0.063700
     34 C54        -39.3330     0.1070    -5.0670 c3         1 OL7       0.171900
     35 C55        -34.0290     0.6560    -3.6890 c6         1 OL7      -0.070700
     36 C56        -33.9860    -0.3850    -2.5290 c6         1 OL7      -0.077400
     37 C57        -33.6620     0.2890    -1.1720 c6         1 OL7      -0.073400
     38 C58        -32.3380     1.0890    -1.2410 c6         1 OL7      -0.075400
     39 C59        -32.3770     2.1290    -2.3870 c6         1 OL7      -0.073400
     40 C60        -32.6870     1.4490    -3.7430 c6         1 OL7      -0.077400
     41 N05        -28.8280    -1.4650    -5.3310 n          1 OL7      -0.392800
     42 N08        -26.2200     0.2590    -6.9910 ns         1 OL7      -0.476900
     43 N13        -32.2870    -0.7150    -6.0820 ns         1 OL7      -0.489900
     44 N20        -26.5530    -1.8020    -0.9680 nb         1 OL7      -0.756000
     45 N23        -26.2820     0.9320    -0.1480 nb         1 OL7      -0.612000
     46 N33        -23.6200    -0.4920    -7.9770 ns         1 OL7      -0.573300
     47 N50        -35.8210    -0.4870    -5.0320 ns         1 OL7      -0.489900
     48 O07        -26.6400    -1.9580    -7.3740 o          1 OL7      -0.567100
     49 O12        -29.6420     0.2940    -6.5380 o          1 OL7      -0.627100
     50 O15        -33.7610    -2.3180    -5.4300 o          1 OL7      -0.606100
     51 O18        -28.2680    -1.1140    -2.4850 os         1 OL7      -0.449300
     52 O29        -23.1030    -3.0130     2.1740 os         1 OL7      -0.334100
     53 O34        -24.5520    -0.7470   -10.0230 o          1 OL7      -0.539100
     54 O36        -22.7000    -2.7620    -8.6640 o          1 OL7      -0.515000
     55 O37        -21.2450    -0.6830    -8.8070 o          1 OL7      -0.515000
     56 O52        -36.9550     1.5040    -5.2020 o          1 OL7      -0.545000
     57 O53        -38.0380    -0.5180    -5.0150 os         1 OL7      -0.454100
     58 S35        -22.2820    -1.4640    -8.1250 s6         1 OL7       1.254800
     59 H172       -30.4100    -4.0500    -7.8190 hc         1 OL7       0.049200
     60 H171       -29.1540    -2.8320    -7.8130 hc         1 OL7       0.049200
     61 H281       -24.4610     1.2940     1.7050 ha         1 OL7       0.136000
     62 H011       -27.4620     0.1160    -4.8800 h1         1 OL7       0.072700
     63 H021       -26.4010    -2.7990    -4.7870 hc         1 OL7       0.075700
     64 H022       -25.8900    -1.4550    -3.7790 hc         1 OL7       0.075700
     65 H031       -27.7330    -3.1650    -2.6850 h1         1 OL7       0.091700
     66 H042       -30.0670    -2.3310    -3.7900 h1         1 OL7       0.081200
     67 H041       -29.0870    -3.4950    -4.7180 h1         1 OL7       0.081200
     68 H111       -31.2070    -2.4910    -5.7660 h1         1 OL7       0.086700
     69 H161       -31.1020    -1.1530    -8.5180 hc         1 OL7       0.058700
     70 H162       -32.1860    -2.4660    -8.1010 hc         1 OL7       0.058700
     71 H251       -24.9810    -3.4400     0.2500 ha         1 OL7       0.133000
     72 H271       -23.0520    -0.4760     2.7300 ha         1 OL7       0.135000
     73 H303       -22.4350    -4.9750     2.4390 h1         1 OL7       0.045033
     74 H301       -24.1590    -4.8200     2.0420 h1         1 OL7       0.045033
     75 H302       -22.9230    -4.5690     0.7800 h1         1 OL7       0.045033
     76 H313       -27.7920     2.6390    -1.2680 hc         1 OL7       0.059367
     77 H311       -27.8750     1.7270    -2.7840 hc         1 OL7       0.059367
     78 H312       -29.0940     1.4660    -1.5250 hc         1 OL7       0.059367
     79 H391       -21.1580    -0.4030    -4.5990 hc         1 OL7       0.087950
     80 H392       -20.7050     0.2900    -6.2290 hc         1 OL7       0.087950
     81 H402       -20.0280    -2.5720    -5.2090 hc         1 OL7       0.087950
     82 H401       -19.5760    -1.8780    -6.8390 hc         1 OL7       0.087950
     83 H411       -22.5230    -2.6050    -4.4960 hc         1 OL7       0.054367
     84 H412       -23.7890    -1.9480    -5.5380 hc         1 OL7       0.054367
     85 H413       -22.9870    -3.4710    -5.9640 hc         1 OL7       0.054367
     86 H421       -27.8040     1.3300    -8.7490 hc         1 OL7       0.102700
     87 H431       -26.2900     1.1960   -11.3460 ha         1 OL7       0.189000
     88 H441       -27.9070    -0.3790   -12.1950 ha         1 OL7       0.168000
     89 H451       -28.9250    -0.6200    -9.2760 hc         1 OL7       0.047700
     90 H452       -29.9460    -0.6330   -10.7050 hc         1 OL7       0.047700
     91 H461       -28.7110    -2.7190   -11.4870 hc         1 OL7       0.047700
     92 H462       -27.8280    -2.7210    -9.9700 hc         1 OL7       0.047700
     93 H472       -24.9740     2.3290    -9.4870 hc         1 OL7       0.086200
     94 H471       -25.9480     2.7810    -8.0080 hc         1 OL7       0.086200
     95 H482       -30.8650    -3.0940   -10.3140 hc         1 OL7       0.037200
     96 H481       -29.6850    -4.3420    -9.9670 hc         1 OL7       0.037200
     97 H491       -34.3830     0.8020    -5.8350 h1         1 OL7       0.069700
     98 H543       -40.1250    -0.6490    -5.0000 h1         1 OL7       0.048700
     99 H542       -39.4630     0.8100    -4.2330 h1         1 OL7       0.048700
    100 H541       -39.4660     0.6560    -6.0080 h1         1 OL7       0.048700
    101 H551       -34.8190     1.3830    -3.4560 hc         1 OL7       0.055700
    102 H561       -34.9490    -0.9070    -2.4500 hc         1 OL7       0.050200
    103 H562       -33.2310    -1.1550    -2.7390 hc         1 OL7       0.050200
    104 H572       -34.4840     0.9590    -0.8860 hc         1 OL7       0.040950
    105 H571       -33.5950    -0.4740    -0.3840 hc         1 OL7       0.040950
    106 H581       -31.4970     0.3990    -1.3950 hc         1 OL7       0.040700
    107 H582       -32.1570     1.5950    -0.2830 hc         1 OL7       0.040700
    108 H592       -31.4140     2.6550    -2.4450 hc         1 OL7       0.040950
    109 H591       -33.1370     2.8930    -2.1710 hc         1 OL7       0.040950
    110 H601       -31.8520     0.7810    -3.9880 hc         1 OL7       0.050200
    111 H602       -32.7290     2.2100    -4.5340 hc         1 OL7       0.050200
    112 H081       -26.3630     1.0120    -6.3260 hn         1 OL7       0.322500
    113 H131       -32.1430     0.2860    -6.1640 hn         1 OL7       0.326500
    114 H331       -23.7090    -0.0900    -7.0620 hn         1 OL7       0.336500
    115 H501       -35.9750    -1.4850    -4.9590 hn         1 OL7       0.336500
    116 C31        -28.0290     1.6590    -1.7010 c3         1 OL7      -0.139400
    117 C51        -36.9430     0.2890    -5.0850 c          1 OL7       0.641100
@<TRIPOS>BOND
     1     1    14 1   
     2     1    41 1   
     3     1    49 2   
     4     2    16 1   
     5     2    32 1   
     6     2    59 1   
     7     2    60 1   
     8     3     4 ar  
     9     3    18 ar  
    10     3    44 ar  
    11     4     7 ar  
    12     4    45 ar  
    13     5    17 ar  
    14     5    45 ar  
    15     5   116 1   
    16     6    18 ar  
    17     6    19 ar  
    18     6    52 1   
    19     7    19 ar  
    20     7    61 1   
    21     8     9 1   
    22     8    12 1   
    23     8    41 1   
    24     8    62 1   
    25     9    10 1   
    26     9    63 1   
    27     9    64 1   
    28    10    11 1   
    29    10    51 1   
    30    10    65 1   
    31    11    41 1   
    32    11    66 1   
    33    11    67 1   
    34    12    42 1   
    35    12    48 2   
    36    13    21 1   
    37    13    26 1   
    38    13    31 1   
    39    13    42 1   
    40    14    16 1   
    41    14    43 1   
    42    14    68 1   
    43    15    33 1   
    44    15    43 1   
    45    15    50 2   
    46    16    69 1   
    47    16    70 1   
    48    17    44 ar  
    49    17    51 1   
    50    18    71 1   
    51    19    72 1   
    52    20    52 1   
    53    20    73 1   
    54    20    74 1   
    55    20    75 1   
    56    21    46 1   
    57    21    53 2   
    58    22    23 1   
    59    22    24 1   
    60    22    25 1   
    61    22    58 1   
    62    23    24 1   
    63    23    79 1   
    64    23    80 1   
    65    24    81 1   
    66    24    82 1   
    67    25    83 1   
    68    25    84 1   
    69    25    85 1   
    70    26    27 1   
    71    26    31 1   
    72    26    86 1   
    73    27    28 2   
    74    27    87 1   
    75    28    29 1   
    76    28    88 1   
    77    29    30 1   
    78    29    89 1   
    79    29    90 1   
    80    30    32 1   
    81    30    91 1   
    82    30    92 1   
    83    31    93 1   
    84    31    94 1   
    85    32    95 1   
    86    32    96 1   
    87    33    35 1   
    88    33    47 1   
    89    33    97 1   
    90    34    57 1   
    91    34    98 1   
    92    34    99 1   
    93    34   100 1   
    94    35    36 1   
    95    35    40 1   
    96    35   101 1   
    97    36    37 1   
    98    36   102 1   
    99    36   103 1   
   100    37    38 1   
   101    37   104 1   
   102    37   105 1   
   103    38    39 1   
   104    38   106 1   
   105    38   107 1   
   106    39    40 1   
   107    39   108 1   
   108    39   109 1   
   109    40   110 1   
   110    40   111 1   
   111    42   112 1   
   112    43   113 1   
   113    46    58 1   
   114    46   114 1   
   115    47   115 1   
   116    47   117 1   
   117    54    58 2   
   118    55    58 2   
   119    56   117 2   
   120    57   117 1   
   121    76   116 1   
   122    77   116 1   
   123    78   116 1   
@<TRIPOS>SUBSTRUCTURE
     1 OL7         1 TEMP              0 ****  ****    0 ROOT
