@<TRIPOS>MOLECULE
OL8
   31    33     1     0     0
SMALL
abcg2


@<TRIPOS>ATOM
      1 C2          -0.6340    -0.0430     0.0510 ca         1 OL8      -0.156000
      2 N1           1.7220    -0.3050     0.0410 ns         1 OL8      -0.136000
      3 C1          -1.9190    -0.5310     0.2050 ca         1 OL8       0.080600
      4 C3           0.4650    -0.8930     0.1910 ca         1 OL8      -0.009000
      5 C4           2.9410    -0.9010     0.0130 c          1 OL8       0.549600
      6 C5           4.0760     0.0100    -0.1710 cc         1 OL8       0.042500
      7 C6           5.0660     1.9230    -0.4510 cc         1 OL8       0.151900
      8 C7           6.0520     0.9920    -0.4280 cd         1 OL8      -0.200000
      9 C8           5.4060    -0.2600    -0.2460 cd         1 OL8      -0.093000
     10 O2           3.8680     1.3400    -0.2960 os         1 OL8      -0.243000
     11 O1           3.1360    -2.0990     0.1290 o          1 OL8      -0.570100
     12 C9           0.2470    -2.2440     0.4680 ca         1 OL8      -0.127000
     13 N           -3.0140     0.3520     0.0670 n          1 OL8      -0.325600
     14 C           -3.9650     0.2810    -0.9430 c          1 OL8       0.558200
     15 O           -3.9770    -0.5240    -1.8340 o          1 OL8      -0.461500
     16 C10         -1.0510    -2.7130     0.6080 ca         1 OL8      -0.077000
     17 C11         -2.1450    -1.8710     0.4880 ca         1 OL8      -0.122000
     18 C12         -3.3020     1.4020     0.9300 c          1 OL8       0.558200
     19 C13         -4.5410     2.0410     0.4050 cc         1 OL8      -0.231700
     20 C14         -4.9270     1.3890    -0.6840 cd         1 OL8      -0.231700
     21 O3          -2.6600     1.7050     1.9000 o          1 OL8      -0.461500
     22 H1          -0.4840     1.0040    -0.1850 ha         1 OL8       0.121000
     23 H2           1.7010     0.6970    -0.0860 hn         1 OL8       0.167000
     24 H3           5.0720     2.9950    -0.5640 h4         1 OL8       0.057100
     25 H4           7.1090     1.1760    -0.5280 ha         1 OL8       0.149000
     26 H5           5.8660    -1.2320    -0.1780 ha         1 OL8       0.161000
     27 H6           1.0700    -2.9290     0.5770 ha         1 OL8       0.151000
     28 H7          -1.2070    -3.7610     0.8250 ha         1 OL8       0.121000
     29 H8          -3.1510    -2.2450     0.6220 ha         1 OL8       0.126000
     30 H9          -5.0030     2.8920     0.8810 ha         1 OL8       0.226500
     31 H10         -5.7790     1.5790    -1.3190 ha         1 OL8       0.226500
@<TRIPOS>BOND
     1     1     3 ar  
     2     1     4 ar  
     3     1    22 1   
     4     2     4 1   
     5     2     5 1   
     6     2    23 1   
     7     3    13 1   
     8     3    17 ar  
     9     4    12 ar  
    10     5     6 1   
    11     5    11 2   
    12     6     9 2   
    13     6    10 1   
    14     7     8 2   
    15     7    10 1   
    16     7    24 1   
    17     8     9 1   
    18     8    25 1   
    19     9    26 1   
    20    12    16 ar  
    21    12    27 1   
    22    13    14 1   
    23    13    18 1   
    24    14    15 2   
    25    14    20 1   
    26    16    17 ar  
    27    16    28 1   
    28    17    29 1   
    29    18    19 1   
    30    18    21 2   
    31    19    20 2   
    32    19    30 1   
    33    20    31 1   
@<TRIPOS>SUBSTRUCTURE
     1 OL8         1 TEMP              0 ****  ****    0 ROOT
