@<TRIPOS>MOLECULE
OL8
   31    33     1     0     0
SMALL
No Charge or Current Charge


@<TRIPOS>ATOM
      1 C2          -0.6380    -0.0740     0.0500 ca         1 OL8      -0.156000
      2 N1           1.7580    -0.3980     0.0200 ns         1 OL8      -0.136000
      3 C1          -1.9640    -0.5410     0.1550 ca         1 OL8       0.080600
      4 C3           0.4550    -0.9560     0.1400 ca         1 OL8      -0.009000
      5 C4           3.0280    -0.9610     0.0530 c          1 OL8       0.549600
      6 C5           4.0980     0.0570    -0.1190 cc         1 OL8       0.042500
      7 C6           5.0910     2.0140    -0.4140 cc         1 OL8       0.151900
      8 C7           6.0760     1.0680    -0.3210 cd         1 OL8      -0.200000
      9 C8           5.4470    -0.1800    -0.1320 cd         1 OL8      -0.093000
     10 O2           3.8590     1.4080    -0.2920 os         1 OL8      -0.243000
     11 O1           3.2540    -2.1590     0.2050 o          1 OL8      -0.570100
     12 C9           0.2090    -2.3320     0.3390 ca         1 OL8      -0.127000
     13 N           -3.0680     0.3740     0.0620 n          1 OL8      -0.325600
     14 C           -4.2210     0.1290    -0.6970 c          1 OL8       0.558200
     15 O           -4.4670    -0.8490    -1.3870 o          1 OL8      -0.461500
     16 C10         -1.1090    -2.8060     0.4450 ca         1 OL8      -0.077000
     17 C11         -2.1900    -1.9160     0.3530 ca         1 OL8      -0.122000
     18 C12         -3.1150     1.6120     0.7190 c          1 OL8       0.558200
     19 C13         -4.4040     2.1880     0.3380 cc         1 OL8      -0.231700
     20 C14         -5.0580     1.3140    -0.4960 cd         1 OL8      -0.231700
     21 O3          -2.2710     2.0920     1.4610 o          1 OL8      -0.461500
     22 H1          -0.4540     0.9850    -0.1160 ha         1 OL8       0.121000
     23 H2           1.7630     0.6050    -0.1150 hn         1 OL8       0.167000
     24 H3           5.1200     3.0860    -0.5590 h4         1 OL8       0.057100
     25 H4           7.1440     1.2540    -0.3810 ha         1 OL8       0.149000
     26 H5           5.9320    -1.1460    -0.0190 ha         1 OL8       0.161000
     27 H6           1.0200    -3.0490     0.4160 ha         1 OL8       0.151000
     28 H7          -1.2930    -3.8670     0.6010 ha         1 OL8       0.121000
     29 H8          -3.2030    -2.2980     0.4480 ha         1 OL8       0.126000
     30 H9          -4.7300     3.1580     0.6990 ha         1 OL8       0.226500
     31 H10         -6.0300     1.4150    -0.9680 ha         1 OL8       0.226500
@<TRIPOS>BOND
     1     1     3 ar  
     2     1     4 ar  
     3     1    22 1   
     4     2     4 1   
     5     2     5 1   
     6     2    23 1   
     7     3    13 1   
     8     3    17 ar  
     9     4    12 ar  
    10     5     6 1   
    11     5    11 2   
    12     6     9 2   
    13     6    10 1   
    14     7     8 2   
    15     7    10 1   
    16     7    24 1   
    17     8     9 1   
    18     8    25 1   
    19     9    26 1   
    20    12    16 ar  
    21    12    27 1   
    22    13    14 1   
    23    13    18 1   
    24    14    15 2   
    25    14    20 1   
    26    16    17 ar  
    27    16    28 1   
    28    17    29 1   
    29    18    19 1   
    30    18    21 2   
    31    19    20 2   
    32    19    30 1   
    33    20    31 1   
@<TRIPOS>SUBSTRUCTURE
     1 OL8         1 TEMP              0 ****  ****    0 ROOT
