@<TRIPOS>MOLECULE
OLA
   53    52     1     0     0
SMALL
bcc


@<TRIPOS>ATOM
      1 C1          18.2770    34.7490    53.0250 c          1 OLA       0.925600
      2 O1          18.5420    35.8300    52.4610 o          1 OLA      -0.848800
      3 O2          17.2740    34.0330    52.8120 o          1 OLA      -0.848800
      4 C2          19.2800    34.2150    54.0660 c3         1 OLA      -0.204400
      5 C3          20.3440    35.1950    54.5370 c3         1 OLA      -0.057400
      6 C4          21.3920    34.5440    55.4310 c3         1 OLA      -0.081400
      7 C5          22.4890    35.5100    55.8710 c3         1 OLA      -0.075400
      8 C6          23.7110    34.8190    56.4720 c3         1 OLA      -0.070400
      9 C7          23.4500    34.0410    57.7580 c3         1 OLA      -0.070400
     10 C8          23.2070    34.9310    58.9770 c3         1 OLA      -0.045200
     11 C9          22.9440    34.1160    60.2050 c2         1 OLA      -0.161200
     12 C10         22.0140    34.3230    61.1360 c2         1 OLA      -0.172200
     13 C11         21.0260    35.4440    61.2140 c3         1 OLA      -0.040200
     14 C12         19.5820    34.9900    60.9840 c3         1 OLA      -0.069400
     15 C13         19.2430    34.7210    59.5220 c3         1 OLA      -0.077400
     16 C14         17.8040    34.2460    59.3520 c3         1 OLA      -0.070400
     17 C15         17.2840    34.2230    57.9170 c3         1 OLA      -0.073400
     18 C16         17.2150    35.6030    57.2660 c3         1 OLA      -0.071400
     19 C17         16.2820    35.6580    56.0630 c3         1 OLA      -0.080400
     20 C18         16.3020    37.0120    55.3660 c3         1 OLA      -0.081100
     21 H21         18.7250    33.8270    54.9270 hc         1 OLA       0.014700
     22 H22         19.7740    33.3370    53.6300 hc         1 OLA       0.014700
     23 H31         20.8440    35.6380    53.6720 hc         1 OLA       0.037700
     24 H32         19.8720    36.0270    55.0720 hc         1 OLA       0.037700
     25 H41         20.9040    34.1020    56.3060 hc         1 OLA       0.025700
     26 H42         21.8480    33.7080    54.8860 hc         1 OLA       0.025700
     27 H51         22.8170    36.0870    55.0000 hc         1 OLA       0.034200
     28 H52         22.0730    36.2410    56.5710 hc         1 OLA       0.034200
     29 H61         24.1200    34.1350    55.7210 hc         1 OLA       0.028200
     30 H62         24.4940    35.5610    56.6590 hc         1 OLA       0.028200
     31 H71         22.6020    33.3630    57.6260 hc         1 OLA       0.036200
     32 H72         24.3110    33.3990    57.9670 hc         1 OLA       0.036200
     33 H81         24.1000    35.5500    59.1300 hc         1 OLA       0.045200
     34 H82         22.3870    35.6270    58.7870 hc         1 OLA       0.045200
     35 H9          23.5930    33.2520    60.3270 ha         1 OLA       0.107000
     36 H10         21.9520    33.6050    61.9500 ha         1 OLA       0.106000
     37 H111        21.0960    35.8880    62.2120 hc         1 OLA       0.039200
     38 H112        21.2700    36.2420    60.5100 hc         1 OLA       0.039200
     39 H121        19.3800    34.0960    61.5840 hc         1 OLA       0.030700
     40 H122        18.9050    35.7630    61.3590 hc         1 OLA       0.030700
     41 H131        19.4100    35.6430    58.9550 hc         1 OLA       0.047200
     42 H132        19.9300    33.9790    59.1010 hc         1 OLA       0.047200
     43 H141        17.7080    33.2460    59.7880 hc         1 OLA       0.024200
     44 H142        17.1450    34.8930    59.9420 hc         1 OLA       0.024200
     45 H151        17.8980    33.5570    57.3000 hc         1 OLA       0.042200
     46 H152        16.2820    33.7840    57.9260 hc         1 OLA       0.042200
     47 H161        16.8780    36.3370    58.0080 hc         1 OLA       0.029700
     48 H162        18.2150    35.9240    56.9590 hc         1 OLA       0.029700
     49 H171        16.5520    34.8790    55.3460 hc         1 OLA       0.051200
     50 H172        15.2640    35.4280    56.3920 hc         1 OLA       0.051200
     51 H181        15.6010    37.0450    54.5310 hc         1 OLA       0.030700
     52 H182        16.0350    37.8160    56.0560 hc         1 OLA       0.030700
     53 H183        17.2950    37.2340    54.9690 hc         1 OLA       0.030700
@<TRIPOS>BOND
     1     1     2 1   
     2     1     3 1   
     3     1     4 1   
     4     4     5 1   
     5     4    21 1   
     6     4    22 1   
     7     5     6 1   
     8     5    23 1   
     9     5    24 1   
    10     6     7 1   
    11     6    25 1   
    12     6    26 1   
    13     7     8 1   
    14     7    27 1   
    15     7    28 1   
    16     8     9 1   
    17     8    29 1   
    18     8    30 1   
    19     9    10 1   
    20     9    31 1   
    21     9    32 1   
    22    10    11 1   
    23    10    33 1   
    24    10    34 1   
    25    11    12 2   
    26    11    35 1   
    27    12    13 1   
    28    12    36 1   
    29    13    14 1   
    30    13    37 1   
    31    13    38 1   
    32    14    15 1   
    33    14    39 1   
    34    14    40 1   
    35    15    16 1   
    36    15    41 1   
    37    15    42 1   
    38    16    17 1   
    39    16    43 1   
    40    16    44 1   
    41    17    18 1   
    42    17    45 1   
    43    17    46 1   
    44    18    19 1   
    45    18    47 1   
    46    18    48 1   
    47    19    20 1   
    48    19    49 1   
    49    19    50 1   
    50    20    51 1   
    51    20    52 1   
    52    20    53 1   
@<TRIPOS>SUBSTRUCTURE
     1 OLA         1 TEMP              0 ****  ****    0 ROOT
