@<TRIPOS>MOLECULE
OLA
   53    52     1     0     0
SMALL
No Charge or Current Charge


@<TRIPOS>ATOM
      1 C1          18.6460    33.6050    52.4100 c          1 OLA       0.715000
      2 O1          18.6890    34.1300    51.3070 o          1 OLA      -0.743500
      3 O2          17.6100    33.2420    52.9450 o          1 OLA      -0.743500
      4 C2          19.9650    33.4360    53.1860 c3         1 OLA      -0.204400
      5 C3          20.2490    34.6950    54.0410 c3         1 OLA      -0.057400
      6 C4          21.5630    34.5980    54.8490 c3         1 OLA      -0.081400
      7 C5          21.8580    35.8710    55.6770 c3         1 OLA      -0.075400
      8 C6          23.1790    35.8220    56.4890 c3         1 OLA      -0.070400
      9 C7          23.2930    34.6820    57.5350 c3         1 OLA      -0.070400
     10 C8          22.1540    34.6660    58.5770 c3         1 OLA      -0.045200
     11 C9          22.3280    33.5960    59.6430 c2         1 OLA      -0.211200
     12 C10         21.9320    33.6590    60.9280 c2         1 OLA      -0.222200
     13 C11         21.2400    34.8190    61.6290 c3         1 OLA      -0.040200
     14 C12         19.6950    34.7420    61.5810 c3         1 OLA      -0.069400
     15 C13         19.1180    34.8120    60.1490 c3         1 OLA      -0.077400
     16 C14         17.5780    34.9070    60.0910 c3         1 OLA      -0.070400
     17 C15         17.0010    34.8440    58.6540 c3         1 OLA      -0.073400
     18 C16         17.4530    35.9980    57.7260 c3         1 OLA      -0.071400
     19 C17         16.8080    35.9380    56.3250 c3         1 OLA      -0.080400
     20 C18         17.2630    37.0870    55.4040 c3         1 OLA      -0.081100
     21 H21         19.8890    32.6020    53.8950 hc         1 OLA       0.014700
     22 H22         20.8100    33.3500    52.4920 hc         1 OLA       0.014700
     23 H31         20.2910    35.5750    53.3860 hc         1 OLA       0.037700
     24 H32         19.4140    34.8530    54.7350 hc         1 OLA       0.037700
     25 H41         21.4990    33.7310    55.5170 hc         1 OLA       0.025700
     26 H42         22.3990    34.4150    54.1620 hc         1 OLA       0.025700
     27 H51         21.9080    36.7290    54.9940 hc         1 OLA       0.034200
     28 H52         21.0170    36.0710    56.3520 hc         1 OLA       0.034200
     29 H61         24.0200    35.7390    55.7890 hc         1 OLA       0.028200
     30 H62         23.3030    36.7830    57.0040 hc         1 OLA       0.028200
     31 H71         23.3310    33.7140    57.0200 hc         1 OLA       0.036200
     32 H72         24.2500    34.7900    58.0600 hc         1 OLA       0.036200
     33 H81         22.0720    35.6620    59.0240 hc         1 OLA       0.045200
     34 H82         21.2100    34.4810    58.0520 hc         1 OLA       0.045200
     35 H9          22.8150    32.6880    59.2820 ha         1 OLA       0.157000
     36 H10         22.1130    32.8050    61.5830 ha         1 OLA       0.156000
     37 H111        21.5560    34.8470    62.6790 hc         1 OLA       0.039200
     38 H112        21.5580    35.7790    61.2050 hc         1 OLA       0.039200
     39 H121        19.3620    33.8150    62.0640 hc         1 OLA       0.030700
     40 H122        19.2870    35.5720    62.1710 hc         1 OLA       0.030700
     41 H131        19.5510    35.6830    59.6450 hc         1 OLA       0.047200
     42 H132        19.4340    33.9210    59.5930 hc         1 OLA       0.047200
     43 H141        17.1480    34.0840    60.6740 hc         1 OLA       0.024200
     44 H142        17.2530    35.8390    60.5710 hc         1 OLA       0.024200
     45 H151        17.2780    33.8850    58.1990 hc         1 OLA       0.042200
     46 H152        15.9060    34.8520    58.7210 hc         1 OLA       0.042200
     47 H161        17.2060    36.9580    58.1970 hc         1 OLA       0.029700
     48 H162        18.5420    35.9680    57.6050 hc         1 OLA       0.029700
     49 H171        17.0570    34.9810    55.8510 hc         1 OLA       0.051200
     50 H172        15.7160    35.9710    56.4240 hc         1 OLA       0.051200
     51 H181        16.7990    36.9910    54.4150 hc         1 OLA       0.030700
     52 H182        16.9770    38.0580    55.8250 hc         1 OLA       0.030700
     53 H183        18.3520    37.0750    55.2740 hc         1 OLA       0.030700
@<TRIPOS>BOND
     1     1     2 1   
     2     1     3 1   
     3     1     4 1   
     4     4     5 1   
     5     4    21 1   
     6     4    22 1   
     7     5     6 1   
     8     5    23 1   
     9     5    24 1   
    10     6     7 1   
    11     6    25 1   
    12     6    26 1   
    13     7     8 1   
    14     7    27 1   
    15     7    28 1   
    16     8     9 1   
    17     8    29 1   
    18     8    30 1   
    19     9    10 1   
    20     9    31 1   
    21     9    32 1   
    22    10    11 1   
    23    10    33 1   
    24    10    34 1   
    25    11    12 2   
    26    11    35 1   
    27    12    13 1   
    28    12    36 1   
    29    13    14 1   
    30    13    37 1   
    31    13    38 1   
    32    14    15 1   
    33    14    39 1   
    34    14    40 1   
    35    15    16 1   
    36    15    41 1   
    37    15    42 1   
    38    16    17 1   
    39    16    43 1   
    40    16    44 1   
    41    17    18 1   
    42    17    45 1   
    43    17    46 1   
    44    18    19 1   
    45    18    47 1   
    46    18    48 1   
    47    19    20 1   
    48    19    49 1   
    49    19    50 1   
    50    20    51 1   
    51    20    52 1   
    52    20    53 1   
@<TRIPOS>SUBSTRUCTURE
     1 OLA         1 TEMP              0 ****  ****    0 ROOT
