@<TRIPOS>MOLECULE
OLB
   65    64     1     0     0
SMALL
bcc


@<TRIPOS>ATOM
      1 C1           5.9360    -0.4230     0.1820 c          1 OLB       0.641100
      2 C2           4.5170    -0.1120    -0.2080 c3         1 OLB      -0.137400
      3 C3           3.5350    -1.2270     0.1140 c3         1 OLB      -0.068400
      4 C4           2.1150    -0.8710    -0.3060 c3         1 OLB      -0.076400
      5 C5           1.1080    -1.9690     0.0140 c3         1 OLB      -0.074400
      6 O19          6.3000    -1.4200     0.7550 o          1 OLB      -0.541000
      7 O20          6.7650     0.5490    -0.1830 os         1 OLB      -0.411900
      8 C21          8.1490     0.4000     0.1300 c3         1 OLB       0.105400
      9 C22          8.8700     1.6420    -0.3650 c3         1 OLB       0.141100
     10 O23          8.3680     2.8170     0.2220 oh         1 OLB      -0.563800
     11 C24         10.3670     1.4720    -0.1500 c3         1 OLB       0.105400
     12 O25         11.0330     2.5750    -0.7120 oh         1 OLB      -0.579800
     13 C6          -0.3100    -1.6210    -0.4190 c3         1 OLB      -0.075400
     14 C7          -1.3310    -2.6960    -0.0670 c3         1 OLB      -0.072400
     15 C8          -2.7390    -2.3490    -0.5520 c3         1 OLB      -0.044200
     16 C9          -3.7420    -3.4070    -0.2150 c2         1 OLB      -0.165200
     17 C10         -4.8800    -3.2580     0.4630 c2         1 OLB      -0.166200
     18 C11         -5.4420    -1.9870     1.0200 c3         1 OLB      -0.043200
     19 H2           4.2220     0.8140     0.2960 hc         1 OLB       0.073700
     20 H2A          4.4970     0.1210    -1.2770 hc         1 OLB       0.073700
     21 H3           3.8420    -2.1480    -0.3890 hc         1 OLB       0.053700
     22 H3A          3.5550    -1.4400     1.1860 hc         1 OLB       0.053700
     23 H4           1.8070     0.0560     0.1910 hc         1 OLB       0.037700
     24 H4A          2.0930    -0.6600    -1.3800 hc         1 OLB       0.037700
     25 H5           1.4190    -2.9000    -0.4720 hc         1 OLB       0.040200
     26 H5A          1.1230    -2.1700     1.0910 hc         1 OLB       0.040200
     27 H21          8.2820     0.2800     1.2100 h1         1 OLB       0.050700
     28 H21A         8.5540    -0.4910    -0.3570 h1         1 OLB       0.050700
     29 H22          8.6880     1.7450    -1.4400 h1         1 OLB       0.097700
     30 HO23         8.5610     2.8000     1.1660 ho         1 OLB       0.397000
     31 H24         10.5680     1.3800     0.9280 h1         1 OLB       0.021200
     32 H24A        10.6830     0.5280    -0.6120 h1         1 OLB       0.021200
     33 HO25        11.9740     2.4680    -0.5490 ho         1 OLB       0.406000
     34 H16         -0.6110    -0.6750     0.0450 hc         1 OLB       0.037200
     35 H17         -0.3270    -1.4450    -1.5000 hc         1 OLB       0.037200
     36 H18         -1.0210    -3.6520    -0.5030 hc         1 OLB       0.040200
     37 H19         -1.3460    -2.8450     1.0170 hc         1 OLB       0.040200
     38 H20         -3.0370    -1.3800    -0.1440 hc         1 OLB       0.044700
     39 H211        -2.7090    -2.2230    -1.6410 hc         1 OLB       0.044700
     40 H221        -3.4940    -4.4050    -0.5710 ha         1 OLB       0.115000
     41 H23         -5.4980    -4.1410     0.6050 ha         1 OLB       0.115000
     42 H241        -5.7950    -2.1670     2.0410 hc         1 OLB       0.043700
     43 H25         -4.6740    -1.2140     1.0950 hc         1 OLB       0.043700
     44 C12         -6.6080    -1.4570     0.1820 c3         1 OLB      -0.072400
     45 H26         -7.3880    -2.2230     0.1170 hc         1 OLB       0.039700
     46 C13         -7.2020    -0.1680     0.7370 c3         1 OLB      -0.075400
     47 H27         -6.2600    -1.2880    -0.8420 hc         1 OLB       0.039700
     48 C14         -8.3470     0.3750    -0.1100 c3         1 OLB      -0.074400
     49 H28         -7.5530    -0.3380     1.7600 hc         1 OLB       0.037200
     50 H29         -6.4140     0.5900     0.8080 hc         1 OLB       0.037200
     51 H30         -7.9960     0.5270    -1.1360 hc         1 OLB       0.037700
     52 H31         -9.1410    -0.3770    -0.1700 hc         1 OLB       0.037700
     53 C15         -8.9250     1.6810     0.4220 c3         1 OLB      -0.074400
     54 C16        -10.0600     2.2280    -0.4340 c3         1 OLB      -0.075400
     55 H32         -9.2830     1.5310     1.4470 hc         1 OLB       0.036700
     56 H33         -8.1270     2.4290     0.4860 hc         1 OLB       0.036700
     57 H34         -9.7030     2.3700    -1.4610 hc         1 OLB       0.037200
     58 H35        -10.8620     1.4850    -0.4920 hc         1 OLB       0.037200
     59 C17        -10.6280     3.5440     0.0850 c3         1 OLB      -0.075400
     60 C18        -11.7540     4.0890    -0.7820 c3         1 OLB      -0.088100
     61 H36        -10.9890     3.4030     1.1090 hc         1 OLB       0.036700
     62 H37         -9.8250     4.2840     0.1460 hc         1 OLB       0.036700
     63 H38        -12.5860     3.3840    -0.8410 hc         1 OLB       0.031367
     64 H39        -12.1450     5.0270    -0.3870 hc         1 OLB       0.031367
     65 H40        -11.4110     4.2770    -1.8010 hc         1 OLB       0.031367
@<TRIPOS>BOND
     1     1     2 1   
     2     1     6 2   
     3     1     7 1   
     4     2     3 1   
     5     2    19 1   
     6     2    20 1   
     7     3     4 1   
     8     3    21 1   
     9     3    22 1   
    10     4     5 1   
    11     4    23 1   
    12     4    24 1   
    13     5    13 1   
    14     5    25 1   
    15     5    26 1   
    16     7     8 1   
    17     8     9 1   
    18     8    27 1   
    19     8    28 1   
    20     9    10 1   
    21     9    11 1   
    22     9    29 1   
    23    10    30 1   
    24    11    12 1   
    25    11    31 1   
    26    11    32 1   
    27    12    33 1   
    28    13    14 1   
    29    13    34 1   
    30    13    35 1   
    31    14    15 1   
    32    14    36 1   
    33    14    37 1   
    34    15    16 1   
    35    15    38 1   
    36    15    39 1   
    37    16    17 2   
    38    16    40 1   
    39    17    18 1   
    40    17    41 1   
    41    18    42 1   
    42    18    43 1   
    43    18    44 1   
    44    44    45 1   
    45    44    46 1   
    46    44    47 1   
    47    46    48 1   
    48    46    49 1   
    49    46    50 1   
    50    48    51 1   
    51    48    52 1   
    52    48    53 1   
    53    53    54 1   
    54    53    55 1   
    55    53    56 1   
    56    54    57 1   
    57    54    58 1   
    58    54    59 1   
    59    59    60 1   
    60    59    61 1   
    61    59    62 1   
    62    60    63 1   
    63    60    64 1   
    64    60    65 1   
@<TRIPOS>SUBSTRUCTURE
     1 OLB         1 TEMP              0 ****  ****    0 ROOT
