@<TRIPOS>MOLECULE
OLB
   65    64     1     0     0
SMALL
No Charge or Current Charge


@<TRIPOS>ATOM
      1 C1           5.6390    -0.7070    -1.3300 c          1 OLB       0.592100
      2 C2           4.2250    -0.8280    -1.9030 c3         1 OLB      -0.137400
      3 C3           3.2780    -1.5510    -0.9160 c3         1 OLB      -0.068400
      4 C4           1.8360    -1.6880    -1.4530 c3         1 OLB      -0.076400
      5 C5           0.8910    -2.4100    -0.4680 c3         1 OLB      -0.074400
      6 O19          6.4820    -1.5900    -1.4130 o          1 OLB      -0.492000
      7 O20          5.8280     0.4880    -0.6870 os         1 OLB      -0.435100
      8 C21          7.1120     0.7350    -0.0750 c3         1 OLB       0.128600
      9 C22          7.0860     2.1270     0.6090 c3         1 OLB       0.164300
     10 O23          6.1520     2.1400     1.7060 oh         1 OLB      -0.626000
     11 C24          8.4830     2.5360     1.1450 c3         1 OLB       0.128600
     12 O25          8.4030     3.8020     1.8230 oh         1 OLB      -0.642000
     13 C6          -0.5510    -2.5470    -1.0050 c3         1 OLB      -0.075400
     14 C7          -1.4970    -3.2680    -0.0200 c3         1 OLB      -0.072400
     15 C8          -2.9380    -3.4040    -0.5530 c3         1 OLB      -0.044200
     16 C9          -3.8490    -4.1050     0.4370 c2         1 OLB      -0.215200
     17 C10         -4.6780    -3.5220     1.3210 c2         1 OLB      -0.216200
     18 C11         -4.8590    -2.0340     1.5530 c3         1 OLB      -0.043200
     19 H2           3.8210     0.1770    -2.0720 hc         1 OLB       0.073700
     20 H2A          4.2650    -1.3920    -2.8410 hc         1 OLB       0.073700
     21 H3           3.6780    -2.5490    -0.6980 hc         1 OLB       0.053700
     22 H3A          3.2590    -1.0010     0.0340 hc         1 OLB       0.053700
     23 H4           1.4360    -0.6890    -1.6690 hc         1 OLB       0.037700
     24 H4A          1.8560    -2.2380    -2.4020 hc         1 OLB       0.037700
     25 H5           1.2910    -3.4090    -0.2510 hc         1 OLB       0.040200
     26 H5A          0.8700    -1.8600     0.4810 hc         1 OLB       0.040200
     27 H21          7.3440    -0.0340     0.6740 h1         1 OLB       0.050700
     28 H21A         7.9050     0.7220    -0.8350 h1         1 OLB       0.050700
     29 H22          6.7930     2.8670    -0.1490 h1         1 OLB       0.097700
     30 HO23         6.4360     2.8970     2.2660 ho         1 OLB       0.436000
     31 H24          8.8530     1.7610     1.8290 h1         1 OLB       0.021200
     32 H24A         9.1850     2.6010     0.3030 h1         1 OLB       0.021200
     33 HO25         9.3170     4.0410     2.0990 ho         1 OLB       0.445000
     34 H16         -0.9500    -1.5480    -1.2220 hc         1 OLB       0.037200
     35 H17         -0.5310    -3.0980    -1.9540 hc         1 OLB       0.037200
     36 H18         -1.0990    -4.2670     0.1980 hc         1 OLB       0.040200
     37 H19         -1.5170    -2.7180     0.9290 hc         1 OLB       0.040200
     38 H20         -3.3240    -2.4070    -0.7960 hc         1 OLB       0.044700
     39 H211        -2.9240    -3.9600    -1.4990 hc         1 OLB       0.044700
     40 H221        -3.8060    -5.1950     0.3770 ha         1 OLB       0.165000
     41 H23         -5.2930    -4.1460     1.9730 ha         1 OLB       0.165000
     42 H241        -4.9960    -1.8420     2.6250 hc         1 OLB       0.043700
     43 H25         -3.9560    -1.4840     1.2620 hc         1 OLB       0.043700
     44 C12         -6.0640    -1.4670     0.7750 c3         1 OLB      -0.072400
     45 H26         -6.9730    -1.9970     1.0850 hc         1 OLB       0.039700
     46 C13         -6.2630     0.0510     0.9860 c3         1 OLB      -0.075400
     47 H27         -5.9250    -1.6670    -0.2940 hc         1 OLB       0.039700
     48 C14         -7.4680     0.6160     0.2030 c3         1 OLB      -0.074400
     49 H28         -6.4020     0.2510     2.0560 hc         1 OLB       0.037200
     50 H29         -5.3520     0.5790     0.6760 hc         1 OLB       0.037200
     51 H30         -7.3290     0.4150    -0.8670 hc         1 OLB       0.037700
     52 H31         -8.3780     0.0880     0.5130 hc         1 OLB       0.037700
     53 C15         -7.6660     2.1340     0.4120 c3         1 OLB      -0.074400
     54 C16         -8.8710     2.7000    -0.3710 c3         1 OLB      -0.075400
     55 H32         -7.8050     2.3350     1.4820 hc         1 OLB       0.036700
     56 H33         -6.7550     2.6620     0.1020 hc         1 OLB       0.036700
     57 H34         -8.7320     2.4990    -1.4410 hc         1 OLB       0.037200
     58 H35         -9.7810     2.1720    -0.0610 hc         1 OLB       0.037200
     59 C17         -9.0680     4.2170    -0.1620 c3         1 OLB      -0.075400
     60 C18        -10.2700     4.7820    -0.9430 c3         1 OLB      -0.088100
     61 H36         -9.2100     4.4220     0.9060 hc         1 OLB       0.036700
     62 H37         -8.1600     4.7490    -0.4730 hc         1 OLB       0.036700
     63 H38        -11.2010     4.2940    -0.6290 hc         1 OLB       0.031367
     64 H39        -10.3700     5.8590    -0.7640 hc         1 OLB       0.031367
     65 H40        -10.1420     4.6240    -2.0210 hc         1 OLB       0.031367
@<TRIPOS>BOND
     1     1     2 1   
     2     1     6 2   
     3     1     7 1   
     4     2     3 1   
     5     2    19 1   
     6     2    20 1   
     7     3     4 1   
     8     3    21 1   
     9     3    22 1   
    10     4     5 1   
    11     4    23 1   
    12     4    24 1   
    13     5    13 1   
    14     5    25 1   
    15     5    26 1   
    16     7     8 1   
    17     8     9 1   
    18     8    27 1   
    19     8    28 1   
    20     9    10 1   
    21     9    11 1   
    22     9    29 1   
    23    10    30 1   
    24    11    12 1   
    25    11    31 1   
    26    11    32 1   
    27    12    33 1   
    28    13    14 1   
    29    13    34 1   
    30    13    35 1   
    31    14    15 1   
    32    14    36 1   
    33    14    37 1   
    34    15    16 1   
    35    15    38 1   
    36    15    39 1   
    37    16    17 2   
    38    16    40 1   
    39    17    18 1   
    40    17    41 1   
    41    18    42 1   
    42    18    43 1   
    43    18    44 1   
    44    44    45 1   
    45    44    46 1   
    46    44    47 1   
    47    46    48 1   
    48    46    49 1   
    49    46    50 1   
    50    48    51 1   
    51    48    52 1   
    52    48    53 1   
    53    53    54 1   
    54    53    55 1   
    55    53    56 1   
    56    54    57 1   
    57    54    58 1   
    58    54    59 1   
    59    59    60 1   
    60    59    61 1   
    61    59    62 1   
    62    60    63 1   
    63    60    64 1   
    64    60    65 1   
@<TRIPOS>SUBSTRUCTURE
     1 OLB         1 TEMP              0 ****  ****    0 ROOT
