@<TRIPOS>MOLECULE
OLC
   65    64     1     0     0
SMALL
abcg2


@<TRIPOS>ATOM
      1 C18         13.1580    -3.0270    -0.0470 c3         1 OLC      -0.088100
      2 C10          4.6870     2.4980     0.1570 c2         1 OLC      -0.214200
      3 C9           3.5230     2.7750    -0.4290 c2         1 OLC      -0.218200
      4 C17         11.6750    -3.0180     0.2970 c3         1 OLC      -0.075400
      5 C11          5.2710     1.1550     0.4700 c3         1 OLC      -0.042200
      6 C8           2.4640     1.8190    -0.8810 c3         1 OLC      -0.041200
      7 C24        -10.8660    -0.9600     0.5300 c3         1 OLC       0.128600
      8 C16         10.9950    -1.6980    -0.0460 c3         1 OLC      -0.075400
      9 C12          6.7190     1.0420    -0.0050 c3         1 OLC      -0.073400
     10 C7           1.1440     2.0670    -0.1480 c3         1 OLC      -0.073400
     11 C15          9.5120    -1.6720     0.3020 c3         1 OLC      -0.074400
     12 C13          7.3690    -0.2900     0.3460 c3         1 OLC      -0.074400
     13 C6           0.0070     1.1660    -0.6170 c3         1 OLC      -0.074400
     14 C14          8.8420    -0.3470    -0.0400 c3         1 OLC      -0.075400
     15 C5          -1.3170     1.5050     0.0560 c3         1 OLC      -0.075400
     16 C4          -2.4710     0.6070    -0.3720 c3         1 OLC      -0.075400
     17 C3          -3.7990     1.0370     0.2390 c3         1 OLC      -0.068400
     18 C2          -4.9400     0.1170    -0.1650 c3         1 OLC      -0.136400
     19 C21         -8.5620    -0.0460     0.4850 c3         1 OLC       0.128600
     20 C1          -6.2790     0.5450     0.3700 c          1 OLC       0.592100
     21 C22         -9.4410    -1.2110     0.0610 c3         1 OLC       0.163300
     22 O19         -6.4950     1.5690     0.9710 o          1 OLC      -0.492000
     23 O23         -9.3620    -1.4600    -1.3210 oh         1 OLC      -0.626000
     24 O20         -7.2240    -0.3450     0.0880 os         1 OLC      -0.434100
     25 H18         13.6920    -2.2440     0.4960 hc         1 OLC       0.031367
     26 H18A        13.6230    -3.9810     0.2040 hc         1 OLC       0.031367
     27 H18B        13.3160    -2.8520    -1.1130 hc         1 OLC       0.031367
     28 H10          5.3100     3.3420     0.4450 ha         1 OLC       0.164000
     29 H9           3.2800     3.8250    -0.5780 ha         1 OLC       0.164000
     30 H17         11.1700    -3.8330    -0.2310 hc         1 OLC       0.036700
     31 H17A        11.5450    -3.2240     1.3650 hc         1 OLC       0.036700
     32 H11          5.2490     0.9980     1.5550 hc         1 OLC       0.044700
     33 H11A         4.6750     0.3510     0.0350 hc         1 OLC       0.044700
     34 H8           2.2950     1.9500    -1.9560 hc         1 OLC       0.044200
     35 H8A          2.7750     0.7820    -0.7400 hc         1 OLC       0.044200
     36 H24        -10.8500    -0.7310     1.6030 h1         1 OLC       0.021200
     37 H24A       -11.2590    -0.0670     0.0220 h1         1 OLC       0.021200
     38 H16         11.5040    -0.8820     0.4800 hc         1 OLC       0.036700
     39 H16A        11.1210    -1.4930    -1.1150 hc         1 OLC       0.036700
     40 H12          6.7610     1.1970    -1.0880 hc         1 OLC       0.039200
     41 H12A         7.3020     1.8560     0.4400 hc         1 OLC       0.039200
     42 H7           1.2980     1.9320     0.9270 hc         1 OLC       0.039700
     43 H7A          0.8520     3.1140    -0.2840 hc         1 OLC       0.039700
     44 H15          9.0000    -2.4860    -0.2230 hc         1 OLC       0.036700
     45 H15A         9.3870    -1.8760     1.3710 hc         1 OLC       0.036700
     46 H13          7.2700    -0.4700     1.4220 hc         1 OLC       0.037200
     47 H13A         6.8290    -1.1040    -0.1490 hc         1 OLC       0.037200
     48 H6          -0.1050     1.2570    -1.7030 hc         1 OLC       0.037700
     49 H6A          0.2640     0.1190    -0.4220 hc         1 OLC       0.037700
     50 H14          9.3750     0.4680     0.4640 hc         1 OLC       0.037200
     51 H14A         8.9450    -0.1550    -1.1140 hc         1 OLC       0.037200
     52 H5          -1.1990     1.4460     1.1440 hc         1 OLC       0.039700
     53 H5A         -1.5710     2.5470    -0.1650 hc         1 OLC       0.039700
     54 H4          -2.5550     0.6150    -1.4640 hc         1 OLC       0.038200
     55 H4A         -2.2530    -0.4300    -0.0910 hc         1 OLC       0.038200
     56 H3          -3.7090     1.0550     1.3290 hc         1 OLC       0.053700
     57 H3A         -4.0190     2.0620    -0.0700 hc         1 OLC       0.053700
     58 H2          -5.0210     0.0640    -1.2560 hc         1 OLC       0.073700
     59 H2A         -4.7420    -0.9090     0.1640 hc         1 OLC       0.073700
     60 H21         -8.8960     0.8820     0.0110 h1         1 OLC       0.050700
     61 H21A        -8.6170     0.0920     1.5680 h1         1 OLC       0.050700
     62 H22         -9.0730    -2.1200     0.5500 h1         1 OLC       0.098700
     63 HO25       -12.5460    -1.9160     0.5150 ho         1 OLC       0.445000
     64 HO23        -9.7230    -0.7010    -1.7920 ho         1 OLC       0.436000
     65 O25        -11.6400    -2.1000     0.2510 oh         1 OLC      -0.642000
@<TRIPOS>BOND
     1     1     4 1   
     2     1    25 1   
     3     1    26 1   
     4     1    27 1   
     5     2     3 2   
     6     2     5 1   
     7     2    28 1   
     8     3     6 1   
     9     3    29 1   
    10     4     8 1   
    11     4    30 1   
    12     4    31 1   
    13     5     9 1   
    14     5    32 1   
    15     5    33 1   
    16     6    10 1   
    17     6    34 1   
    18     6    35 1   
    19     7    21 1   
    20     7    36 1   
    21     7    37 1   
    22     7    65 1   
    23     8    11 1   
    24     8    38 1   
    25     8    39 1   
    26     9    12 1   
    27     9    40 1   
    28     9    41 1   
    29    10    13 1   
    30    10    42 1   
    31    10    43 1   
    32    11    14 1   
    33    11    44 1   
    34    11    45 1   
    35    12    14 1   
    36    12    46 1   
    37    12    47 1   
    38    13    15 1   
    39    13    48 1   
    40    13    49 1   
    41    14    50 1   
    42    14    51 1   
    43    15    16 1   
    44    15    52 1   
    45    15    53 1   
    46    16    17 1   
    47    16    54 1   
    48    16    55 1   
    49    17    18 1   
    50    17    56 1   
    51    17    57 1   
    52    18    20 1   
    53    18    58 1   
    54    18    59 1   
    55    19    21 1   
    56    19    24 1   
    57    19    60 1   
    58    19    61 1   
    59    20    22 2   
    60    20    24 1   
    61    21    23 1   
    62    21    62 1   
    63    23    64 1   
    64    63    65 1   
@<TRIPOS>SUBSTRUCTURE
     1 OLC         1 TEMP              0 ****  ****    0 ROOT
