@<TRIPOS>MOLECULE
OLC
   65    64     1     0     0
SMALL
No Charge or Current Charge


@<TRIPOS>ATOM
      1 C18         11.5210    -3.7620     0.4030 c3         1 OLC      -0.088100
      2 C10          4.4320     3.6080    -0.4840 c2         1 OLC      -0.214200
      3 C9           3.3930     3.5210    -1.3340 c2         1 OLC      -0.218200
      4 C17         10.3190    -3.0520     1.0540 c3         1 OLC      -0.075400
      5 C11          4.9820     2.5000     0.3950 c3         1 OLC      -0.042200
      6 C8           2.5650     2.2850    -1.6340 c3         1 OLC      -0.041200
      7 C24         -9.9690    -0.3370     0.5170 c3         1 OLC       0.128600
      8 C16          9.7460    -1.9120     0.1830 c3         1 OLC      -0.075400
      9 C12          6.1890     1.7910    -0.2530 c3         1 OLC      -0.073400
     10 C7           1.2670     2.2400    -0.8030 c3         1 OLC      -0.073400
     11 C15          8.5410    -1.2000     0.8360 c3         1 OLC      -0.074400
     12 C13          6.7630     0.6510     0.6180 c3         1 OLC      -0.074400
     13 C6           0.4100     0.9850    -1.0820 c3         1 OLC      -0.074400
     14 C14          7.9680    -0.0600    -0.0340 c3         1 OLC      -0.075400
     15 C5          -0.8880     0.9420    -0.2460 c3         1 OLC      -0.075400
     16 C4          -1.7430    -0.3140    -0.5250 c3         1 OLC      -0.075400
     17 C3          -3.0410    -0.3580     0.3110 c3         1 OLC      -0.068400
     18 C2          -3.8970    -1.6160     0.0330 c3         1 OLC      -0.136400
     19 C21         -7.5050    -0.9840     0.8700 c3         1 OLC       0.128600
     20 C1          -5.1760    -1.6160     0.8740 c          1 OLC       0.592100
     21 C22         -8.5360    -0.3160    -0.0770 c3         1 OLC       0.163300
     22 O19         -5.2310    -2.0270     2.0250 o          1 OLC      -0.492000
     23 O23         -8.1710     1.0530    -0.3450 oh         1 OLC      -0.626000
     24 O20         -6.2330    -1.0710     0.1930 os         1 OLC      -0.434100
     25 H18         12.3410    -3.0560     0.2250 hc         1 OLC       0.031367
     26 H18A        11.8920    -4.5610     1.0560 hc         1 OLC       0.031367
     27 H18B        11.2350    -4.2090    -0.5570 hc         1 OLC       0.031367
     28 H10          4.9530     4.5600    -0.3680 ha         1 OLC       0.164000
     29 H9           3.0890     4.4020    -1.9030 ha         1 OLC       0.164000
     30 H17          9.5320    -3.7900     1.2500 hc         1 OLC       0.036700
     31 H17A        10.6280    -2.6470     2.0260 hc         1 OLC       0.036700
     32 H11          5.2830     2.9150     1.3650 hc         1 OLC       0.044700
     33 H11A         4.2060     1.7570     0.6130 hc         1 OLC       0.044700
     34 H8           2.3140     2.2610    -2.7020 hc         1 OLC       0.044200
     35 H8A          3.1440     1.3740    -1.4410 hc         1 OLC       0.044200
     36 H24        -10.2830    -1.3800     0.6560 h1         1 OLC       0.021200
     37 H24A        -9.9610     0.1440     1.5050 h1         1 OLC       0.021200
     38 H16         10.5360    -1.1760    -0.0120 hc         1 OLC       0.036700
     39 H16A         9.4400    -2.3200    -0.7880 hc         1 OLC       0.036700
     40 H12          5.8850     1.3830    -1.2250 hc         1 OLC       0.039200
     41 H12A         6.9770     2.5290    -0.4480 hc         1 OLC       0.039200
     42 H7           1.5240     2.2720     0.2630 hc         1 OLC       0.039700
     43 H7A          0.6740     3.1380    -1.0160 hc         1 OLC       0.039700
     44 H15          7.7510    -1.9360     1.0320 hc         1 OLC       0.036700
     45 H15A         8.8470    -0.7920     1.8080 hc         1 OLC       0.036700
     46 H13          7.0680     1.0590     1.5900 hc         1 OLC       0.037200
     47 H13A         5.9730    -0.0850     0.8130 hc         1 OLC       0.037200
     48 H6           0.1540     0.9540    -2.1480 hc         1 OLC       0.037700
     49 H6A          1.0060     0.0890    -0.8690 hc         1 OLC       0.037700
     50 H14          8.7580     0.6760    -0.2290 hc         1 OLC       0.037200
     51 H14A         7.6630    -0.4680    -1.0060 hc         1 OLC       0.037200
     52 H5          -0.6300     0.9730     0.8200 hc         1 OLC       0.039700
     53 H5A         -1.4830     1.8380    -0.4590 hc         1 OLC       0.039700
     54 H4          -1.9990    -0.3460    -1.5910 hc         1 OLC       0.038200
     55 H4A         -1.1470    -1.2100    -0.3120 hc         1 OLC       0.038200
     56 H3          -2.7850    -0.3250     1.3780 hc         1 OLC       0.053700
     57 H3A         -3.6380     0.5380     0.0990 hc         1 OLC       0.053700
     58 H2          -4.1680    -1.6040    -1.0300 hc         1 OLC       0.073700
     59 H2A         -3.3100    -2.5100     0.2720 hc         1 OLC       0.073700
     60 H21         -7.4190    -0.3910     1.7910 h1         1 OLC       0.050700
     61 H21A        -7.8620    -1.9860     1.1410 h1         1 OLC       0.050700
     62 H22         -8.5570    -0.8950    -1.0120 h1         1 OLC       0.098700
     63 HO25       -11.7790     0.2610     0.0310 ho         1 OLC       0.445000
     64 HO23        -9.0060     1.4780    -0.6460 ho         1 OLC       0.436000
     65 O25        -10.8810     0.3440    -0.3620 oh         1 OLC      -0.642000
@<TRIPOS>BOND
     1     1     4 1   
     2     1    25 1   
     3     1    26 1   
     4     1    27 1   
     5     2     3 2   
     6     2     5 1   
     7     2    28 1   
     8     3     6 1   
     9     3    29 1   
    10     4     8 1   
    11     4    30 1   
    12     4    31 1   
    13     5     9 1   
    14     5    32 1   
    15     5    33 1   
    16     6    10 1   
    17     6    34 1   
    18     6    35 1   
    19     7    21 1   
    20     7    36 1   
    21     7    37 1   
    22     7    65 1   
    23     8    11 1   
    24     8    38 1   
    25     8    39 1   
    26     9    12 1   
    27     9    40 1   
    28     9    41 1   
    29    10    13 1   
    30    10    42 1   
    31    10    43 1   
    32    11    14 1   
    33    11    44 1   
    34    11    45 1   
    35    12    14 1   
    36    12    46 1   
    37    12    47 1   
    38    13    15 1   
    39    13    48 1   
    40    13    49 1   
    41    14    50 1   
    42    14    51 1   
    43    15    16 1   
    44    15    52 1   
    45    15    53 1   
    46    16    17 1   
    47    16    54 1   
    48    16    55 1   
    49    17    18 1   
    50    17    56 1   
    51    17    57 1   
    52    18    20 1   
    53    18    58 1   
    54    18    59 1   
    55    19    21 1   
    56    19    24 1   
    57    19    60 1   
    58    19    61 1   
    59    20    22 2   
    60    20    24 1   
    61    21    23 1   
    62    21    62 1   
    63    23    64 1   
    64    63    65 1   
@<TRIPOS>SUBSTRUCTURE
     1 OLC         1 TEMP              0 ****  ****    0 ROOT
