@<TRIPOS>MOLECULE
OLD
   34    35     1     0     0
SMALL
No Charge or Current Charge


@<TRIPOS>ATOM
      1 N           16.5520    13.9580    34.0590 n8         1 OLD      -0.982200
      2 CA          15.9540    13.3080    32.8320 c3         1 OLD       0.021500
      3 CB          17.0840    12.8560    31.8700 c3         1 OLD      -0.029100
      4 CG          16.5740    12.4170    30.5180 cc         1 OLD      -0.127300
      5 CD2         16.1420    13.2010    29.4760 cd         1 OLD       0.208900
      6 ND1         16.4640    11.1150    30.0630 na         1 OLD      -0.136500
      7 CE1         15.9760    11.1740    28.7720 cc         1 OLD       0.379400
      8 NE2         15.7700    12.4280    28.3960 nd         1 OLD      -0.688000
      9 CH          16.8170     9.8760    30.7930 c3         1 OLD      -0.042400
     10 CG1         18.7930     8.2700    31.4580 ca         1 OLD      -0.156600
     11 CD1         20.1580     7.9020    31.3790 ca         1 OLD      -0.060000
     12 CE3         20.6640     6.8510    32.1620 ca         1 OLD      -0.104000
     13 CD3         17.9480     7.5530    32.3420 ca         1 OLD      -0.060000
     14 CE2         18.4610     6.5010    33.1230 ca         1 OLD      -0.104000
     15 CZ          19.8160     6.1520    33.0330 ca         1 OLD      -0.000900
     16 Br          20.5070     4.7210    34.0980 br         1 OLD      -0.114100
     17 C9          18.2710     9.4090    30.6020 c          1 OLD       0.559700
     18 O2          18.9990     9.9410    29.7690 o          1 OLD      -0.509100
     19 C           14.9140    12.1410    33.0890 c          1 OLD       0.723000
     20 O           13.7680    12.2850    32.6830 o          1 OLD      -0.733000
     21 OXT         15.2610    11.1910    33.7800 o          1 OLD      -0.733000
     22 HN          17.0120    13.2330    34.6230 hn         1 OLD       0.375500
     23 HNA         17.3190    14.5800    33.7780 hn         1 OLD       0.375500
     24 HA          15.3970    14.0970    32.3080 h1         1 OLD       0.057700
     25 HB          17.7810    13.6900    31.7210 hc         1 OLD       0.030700
     26 HBA         17.6700    12.0580    32.3420 hc         1 OLD       0.030700
     27 HD2         16.0810    14.2820    29.4440 h4         1 OLD       0.023100
     28 HE1         15.7980    10.2860    28.1770 h5         1 OLD       0.035100
     29 HH          16.6530    10.0270    31.8650 h1         1 OLD       0.112700
     30 HHA         16.1620     9.0610    30.4640 h1         1 OLD       0.112700
     31 HD1         20.8350     8.4310    30.7110 ha         1 OLD       0.139000
     32 HE3         21.7150     6.5800    32.0920 ha         1 OLD       0.128500
     33 HD3         16.8910     7.7910    32.4350 ha         1 OLD       0.139000
     34 HE2         17.8040     5.9570    33.7970 ha         1 OLD       0.128500
@<TRIPOS>BOND
     1     1     2 1   
     2     1    22 1   
     3     1    23 1   
     4     2     3 1   
     5     2    19 1   
     6     2    24 1   
     7     3     4 1   
     8     3    25 1   
     9     3    26 1   
    10     4     5 2   
    11     4     6 1   
    12     5     8 1   
    13     5    27 1   
    14     6     7 1   
    15     6     9 1   
    16     7     8 2   
    17     7    28 1   
    18     9    17 1   
    19     9    29 1   
    20     9    30 1   
    21    10    11 ar  
    22    10    13 ar  
    23    10    17 1   
    24    11    12 ar  
    25    11    31 1   
    26    12    15 ar  
    27    12    32 1   
    28    13    14 ar  
    29    13    33 1   
    30    14    15 ar  
    31    14    34 1   
    32    15    16 1   
    33    17    18 2   
    34    19    20 1   
    35    19    21 1   
@<TRIPOS>SUBSTRUCTURE
     1 OLD         1 TEMP              0 ****  ****    0 ROOT
