@<TRIPOS>MOLECULE
OLD
   34    35     1     0     0
SMALL
abcg2


@<TRIPOS>ATOM
      1 N           16.5070    13.7480    34.0630 n8         1 OLD      -0.982200
      2 CA          15.9860    13.2530    32.7980 c3         1 OLD       0.021500
      3 CB          17.1110    12.8640    31.8120 c3         1 OLD      -0.029100
      4 CG          16.6370    12.4060    30.4780 cc         1 OLD      -0.127300
      5 CD2         16.2670    13.1180    29.3700 cd         1 OLD       0.208900
      6 ND1         16.4400    11.0930    30.1250 na         1 OLD      -0.136500
      7 CE1         15.9920    11.0800    28.8480 cc         1 OLD       0.379400
      8 NE2         15.8650    12.2850    28.3630 nd         1 OLD      -0.688000
      9 CH          16.7810     9.9300    30.8920 c3         1 OLD      -0.042400
     10 CG1         18.7360     8.3880    31.5200 ca         1 OLD      -0.156600
     11 CD1         20.0630     7.9860    31.3640 ca         1 OLD      -0.060000
     12 CE3         20.5680     6.9120    32.0730 ca         1 OLD      -0.104000
     13 CD3         17.9190     7.6850    32.4040 ca         1 OLD      -0.060000
     14 CE2         18.4100     6.6070    33.1230 ca         1 OLD      -0.104000
     15 CZ          19.7340     6.2310    32.9520 ca         1 OLD      -0.000900
     16 BR          20.4160     4.7730    33.9300 br         1 OLD      -0.114100
     17 C9          18.2450     9.5560    30.7420 c          1 OLD       0.559700
     18 O2          18.9790    10.1880    30.0200 o          1 OLD      -0.509100
     19 C           15.0690    12.0390    33.0630 c          1 OLD       0.723000
     20 O           13.9490    12.0300    32.5250 o          1 OLD      -0.733000
     21 OXT         15.5620    11.1430    33.7880 o          1 OLD      -0.733000
     22 HN          16.9500    12.9750    34.5460 hn         1 OLD       0.375500
     23 HNA         17.2320    14.4360    33.8970 hn         1 OLD       0.375500
     24 HA          15.3960    14.0470    32.3310 h1         1 OLD       0.057700
     25 HB          17.7520    13.7380    31.6630 hc         1 OLD       0.030700
     26 HBA         17.7430    12.1080    32.2860 hc         1 OLD       0.030700
     27 HD2         16.2720    14.1920    29.2550 h4         1 OLD       0.023100
     28 HE1         15.7710    10.1570    28.3320 h5         1 OLD       0.035100
     29 HH          16.5410    10.0950    31.9450 h1         1 OLD       0.112700
     30 HHA         16.1610     9.0920    30.5640 h1         1 OLD       0.112700
     31 HD1         20.7130     8.5170    30.6810 ha         1 OLD       0.139000
     32 HE3         21.5990     6.6140    31.9410 ha         1 OLD       0.128500
     33 HD3         16.8840     7.9630    32.5560 ha         1 OLD       0.139000
     34 HE2         17.7610     6.0760    33.8060 ha         1 OLD       0.128500
@<TRIPOS>BOND
     1     1     2 1   
     2     1    22 1   
     3     1    23 1   
     4     2     3 1   
     5     2    19 1   
     6     2    24 1   
     7     3     4 1   
     8     3    25 1   
     9     3    26 1   
    10     4     5 2   
    11     4     6 1   
    12     5     8 1   
    13     5    27 1   
    14     6     7 1   
    15     6     9 1   
    16     7     8 2   
    17     7    28 1   
    18     9    17 1   
    19     9    29 1   
    20     9    30 1   
    21    10    11 ar  
    22    10    13 ar  
    23    10    17 1   
    24    11    12 ar  
    25    11    31 1   
    26    12    15 ar  
    27    12    32 1   
    28    13    14 ar  
    29    13    33 1   
    30    14    15 ar  
    31    14    34 1   
    32    15    16 1   
    33    17    18 2   
    34    19    20 1   
    35    19    21 1   
@<TRIPOS>SUBSTRUCTURE
     1 OLD         1 TEMP              0 ****  ****    0 ROOT
