@<TRIPOS>MOLECULE
OLE
   20    19     1     0     0
SMALL
bcc


@<TRIPOS>ATOM
      1 ON          -1.7380    -0.0960    -0.4790 oh         1 OLE      -0.653800
      2 CA          -0.3820     0.2820    -0.4960 c3         1 OLE      -0.002900
      3 C            0.2250    -0.0820    -1.8690 c          1 OLE       0.899600
      4 O           -0.5480    -0.7060    -2.6340 o          1 OLE      -0.829300
      5 CB           0.3990    -0.3910     0.6300 c3         1 OLE      -0.068400
      6 CG          -0.1130    -0.0990     2.0420 c3         1 OLE      -0.060700
      7 CD1          0.6730    -0.9220     3.0580 c3         1 OLE      -0.079600
      8 CD2         -0.0360     1.3850     2.3860 c3         1 OLE      -0.079600
      9 OXT          1.3970     0.2560    -2.0970 o          1 OLE      -0.829300
     10 HO          -1.8250    -0.5500    -1.3390 ho         1 OLE       0.433000
     11 HA          -0.3010     1.3730    -0.3780 h1         1 OLE       0.027700
     12 HB1          1.4450    -0.0780     0.5590 hc         1 OLE       0.038700
     13 HB2          0.3890    -1.4750     0.4680 hc         1 OLE       0.038700
     14 HG          -1.1620    -0.4100     2.0970 hc         1 OLE       0.051700
     15 HD11         0.3120    -0.7530     4.0750 hc         1 OLE       0.019033
     16 HD12         0.5930    -1.9920     2.8540 hc         1 OLE       0.019033
     17 HD13         1.7340    -0.6600     3.0370 hc         1 OLE       0.019033
     18 HD21         0.9900     1.7520     2.2950 hc         1 OLE       0.019033
     19 HD22        -0.6650     1.9960     1.7380 hc         1 OLE       0.019033
     20 HD23        -0.3600     1.5660     3.4130 hc         1 OLE       0.019033
@<TRIPOS>BOND
     1     1     2 1   
     2     1    10 1   
     3     2     3 1   
     4     2     5 1   
     5     2    11 1   
     6     3     4 1   
     7     3     9 1   
     8     5     6 1   
     9     5    12 1   
    10     5    13 1   
    11     6     7 1   
    12     6     8 1   
    13     6    14 1   
    14     7    15 1   
    15     7    16 1   
    16     7    17 1   
    17     8    18 1   
    18     8    19 1   
    19     8    20 1   
@<TRIPOS>SUBSTRUCTURE
     1 OLE         1 TEMP              0 ****  ****    0 ROOT
