@<TRIPOS>MOLECULE
OLE
   20    19     1     0     0
SMALL
No Charge or Current Charge


@<TRIPOS>ATOM
      1 ON          -1.7940    -0.1390    -0.5080 oh         1 OLE      -0.716000
      2 CA          -0.4010     0.2730    -0.5320 c3         1 OLE       0.020300
      3 C            0.2720    -0.0330    -1.9230 c          1 OLE       0.689000
      4 O           -0.2820    -0.8480    -2.6520 o          1 OLE      -0.724000
      5 CB           0.3730    -0.4240     0.6220 c3         1 OLE      -0.068400
      6 CG          -0.1010    -0.0820     2.0650 c3         1 OLE      -0.060700
      7 CD1          0.6390    -0.9490     3.1090 c3         1 OLE      -0.079600
      8 CD2          0.0410     1.4210     2.4050 c3         1 OLE      -0.079600
      9 OXT          1.2370     0.6340    -2.2700 o          1 OLE      -0.724000
     10 HO          -1.8980    -0.7050    -1.3120 ho         1 OLE       0.472000
     11 HA          -0.3370     1.3600    -0.3910 h1         1 OLE       0.027700
     12 HB1          1.4360    -0.1640     0.5350 hc         1 OLE       0.038700
     13 HB2          0.3130    -1.5090     0.4730 hc         1 OLE       0.038700
     14 HG          -1.1660    -0.3360     2.1400 hc         1 OLE       0.051700
     15 HD11         0.2640    -0.7460     4.1190 hc         1 OLE       0.019033
     16 HD12         0.4900    -2.0160     2.9030 hc         1 OLE       0.019033
     17 HD13         1.7170    -0.7440     3.0940 hc         1 OLE       0.019033
     18 HD21         1.0810     1.7510     2.2910 hc         1 OLE       0.019033
     19 HD22        -0.5910     2.0370     1.7540 hc         1 OLE       0.019033
     20 HD23        -0.2670     1.6140     3.4390 hc         1 OLE       0.019033
@<TRIPOS>BOND
     1     1     2 1   
     2     1    10 1   
     3     2     3 1   
     4     2     5 1   
     5     2    11 1   
     6     3     4 1   
     7     3     9 1   
     8     5     6 1   
     9     5    12 1   
    10     5    13 1   
    11     6     7 1   
    12     6     8 1   
    13     6    14 1   
    14     7    15 1   
    15     7    16 1   
    16     7    17 1   
    17     8    18 1   
    18     8    19 1   
    19     8    20 1   
@<TRIPOS>SUBSTRUCTURE
     1 OLE         1 TEMP              0 ****  ****    0 ROOT
