@<TRIPOS>MOLECULE
OLF
   63    67     1     0     0
SMALL
No Charge or Current Charge


@<TRIPOS>ATOM
      1 N1          -1.7020     0.3770     0.1650 na         1 OLF      -0.160600
      2 C2          -1.3060     1.7190     0.3370 cc         1 OLF       0.466400
      3 N3          -1.9290     2.5280    -0.5410 nd         1 OLF      -0.558100
      4 C4          -2.6050     0.3710    -0.8700 ca         1 OLF      -0.053200
      5 C5          -2.7400     1.6730    -1.2720 ca         1 OLF       0.068400
      6 C6          -0.1260    -1.5160    -0.2710 c          1 OLF       0.585100
      7 C7          -1.0850    -0.8510     0.7450 c3         1 OLF       0.001300
      8 C8          -3.3020    -0.6770    -1.5020 ca         1 OLF      -0.104000
      9 C10         -3.5980     2.0260    -2.3230 ca         1 OLF      -0.075000
     10 C11         -4.1710    -0.3440    -2.5590 ca         1 OLF       0.140000
     11 C12          2.3940    -1.4290    -0.8200 ca         1 OLF      -0.087000
     12 C14         -0.2570     2.1870     1.2550 ca         1 OLF      -0.118900
     13 C15         -4.3220     1.0030    -2.9670 ca         1 OLF       0.109000
     14 C16          4.8520    -2.0700    -2.1060 ca         1 OLF      -0.131600
     15 C17          4.7510    -0.9500    -1.2510 ca         1 OLF      -0.071000
     16 C18          3.5380    -0.6270    -0.6090 ca         1 OLF      -0.136300
     17 O20          7.1360    -1.6950    -2.5930 o          1 OLF      -0.717000
     18 C21          2.4910    -2.5520    -1.6670 ca         1 OLF      -0.130000
     19 C22          3.7040    -2.8680    -2.3020 ca         1 OLF      -0.075000
     20 C23         -2.0480    -1.8520     1.4840 c6         1 OLF      -0.062700
     21 C24          0.6770     3.1490     0.8120 ca         1 OLF      -0.072500
     22 C25         -0.2150     1.7720     2.6050 ca         1 OLF      -0.072500
     23 F26         -4.8580    -1.3260    -3.1880 f          1 OLF      -0.166000
     24 F27         -5.1560     1.3180    -3.9850 f          1 OLF      -0.170000
     25 O28          6.2050    -3.3910    -3.5250 o          1 OLF      -0.717000
     26 C29          1.7360     3.1710     3.0020 ca         1 OLF       0.129000
     27 C30          1.6770     3.6280     1.6770 ca         1 OLF      -0.109500
     28 C31          0.7850     2.2520     3.4690 ca         1 OLF      -0.109500
     29 Cl32         2.9870     3.7690     4.0830 cl         1 OLF      -0.199000
     30 C33          3.4800     0.6000     0.3010 c3         1 OLF      -0.033800
     31 C34         -1.2460    -2.8680     2.3520 c6         1 OLF      -0.074400
     32 C35         -3.1170    -1.1330     2.3620 c6         1 OLF      -0.074400
     33 C36         -4.0510    -2.1470     3.0660 c6         1 OLF      -0.072900
     34 C37         -2.1810    -3.8790     3.0590 c6         1 OLF      -0.072900
     35 C38         -3.2440    -3.1550     3.9180 c6         1 OLF      -0.076400
     36 H7          -0.4200    -0.5040     1.5400 h1         1 OLF       0.070700
     37 H8          -3.1830    -1.7140    -1.2150 ha         1 OLF       0.155000
     38 HN9          1.3190    -0.3640     0.5570 hn         1 OLF       0.141000
     39 H10         -3.6980     3.0610    -2.6370 ha         1 OLF       0.145000
     40 H17          5.6230    -0.3210    -1.0840 ha         1 OLF       0.130000
     41 H21          1.6410    -3.2040    -1.8400 ha         1 OLF       0.109000
     42 H22          3.7470    -3.7420    -2.9490 ha         1 OLF       0.134000
     43 H23         -2.5780    -2.4280     0.7170 hc         1 OLF       0.075700
     44 H24          0.6430     3.5120    -0.2130 ha         1 OLF       0.133000
     45 H25         -0.9620     1.0870     2.9960 ha         1 OLF       0.133000
     46 H30          2.4040     4.3530     1.3210 ha         1 OLF       0.134500
     47 H31          0.8180     1.9170     4.5030 ha         1 OLF       0.134500
     48 H33          3.1380     0.3340     1.3080 hc         1 OLF       0.025367
     49 H33A         4.4600     1.0790     0.4060 hc         1 OLF       0.025367
     50 H33B         2.7910     1.3510    -0.1030 hc         1 OLF       0.025367
     51 H34         -0.5280    -3.4200     1.7290 hc         1 OLF       0.045450
     52 H34A        -0.6530    -2.3310     3.1050 hc         1 OLF       0.045450
     53 H35         -2.6250    -0.5090     3.1200 hc         1 OLF       0.045450
     54 H35A        -3.7280    -0.4560     1.7490 hc         1 OLF       0.045450
     55 H36         -4.7680    -1.6120     3.7040 hc         1 OLF       0.041700
     56 H36A        -4.6450    -2.6870     2.3150 hc         1 OLF       0.041700
     57 H37         -2.6780    -4.5110     2.3100 hc         1 OLF       0.041700
     58 H37A        -1.5880    -4.5540     3.6920 hc         1 OLF       0.041700
     59 H38         -2.7540    -2.6290     4.7490 hc         1 OLF       0.036200
     60 H38A        -3.9240    -3.8900     4.3700 hc         1 OLF       0.036200
     61 N9           1.1880    -1.0760    -0.1490 ns         1 OLF      -0.136000
     62 C13          6.1650    -2.4110    -2.7940 c          1 OLF       0.713600
     63 O19         -0.5050    -2.3490    -1.0880 o          1 OLF      -0.571100
@<TRIPOS>BOND
     1     1     2 1   
     2     1     4 1   
     3     1     7 1   
     4     2     3 2   
     5     2    12 1   
     6     3     5 1   
     7     4     5 ar  
     8     4     8 ar  
     9     5     9 ar  
    10     6     7 1   
    11     6    61 1   
    12     6    63 2   
    13     7    20 1   
    14     7    36 1   
    15     8    10 ar  
    16     8    37 1   
    17     9    13 ar  
    18     9    39 1   
    19    10    13 ar  
    20    10    23 1   
    21    11    16 ar  
    22    11    18 ar  
    23    11    61 1   
    24    12    21 ar  
    25    12    22 ar  
    26    13    24 1   
    27    14    15 ar  
    28    14    19 ar  
    29    14    62 1   
    30    15    16 ar  
    31    15    40 1   
    32    16    30 1   
    33    17    62 1   
    34    18    19 ar  
    35    18    41 1   
    36    19    42 1   
    37    20    31 1   
    38    20    32 1   
    39    20    43 1   
    40    21    27 ar  
    41    21    44 1   
    42    22    28 ar  
    43    22    45 1   
    44    25    62 1   
    45    26    27 ar  
    46    26    28 ar  
    47    26    29 1   
    48    27    46 1   
    49    28    47 1   
    50    30    48 1   
    51    30    49 1   
    52    30    50 1   
    53    31    34 1   
    54    31    51 1   
    55    31    52 1   
    56    32    33 1   
    57    32    53 1   
    58    32    54 1   
    59    33    35 1   
    60    33    55 1   
    61    33    56 1   
    62    34    35 1   
    63    34    57 1   
    64    34    58 1   
    65    35    59 1   
    66    35    60 1   
    67    38    61 1   
@<TRIPOS>SUBSTRUCTURE
     1 OLF         1 TEMP              0 ****  ****    0 ROOT
