@<TRIPOS>MOLECULE
OLF
   63    67     1     0     0
SMALL
bcc


@<TRIPOS>ATOM
      1 N1          -1.7370     0.3730     0.0390 na         1 OLF      -0.131300
      2 C2          -1.4890     1.7230     0.0680 cc         1 OLF       0.466400
      3 N3          -2.1810     2.3930    -0.8060 nd         1 OLF      -0.558100
      4 C4          -2.6630     0.1740    -0.9610 ca         1 OLF      -0.053200
      5 C5          -2.9340     1.4560    -1.4640 ca         1 OLF       0.068400
      6 C6           0.0300    -1.2520    -0.1810 c          1 OLF       0.652100
      7 C7          -0.9860    -0.6290     0.7810 c3         1 OLF      -0.028000
      8 C8          -3.2870    -0.9620    -1.4700 ca         1 OLF      -0.122000
      9 C10         -3.8600     1.6410    -2.4900 ca         1 OLF      -0.093000
     10 C11         -4.1950    -0.7540    -2.4790 ca         1 OLF       0.104900
     11 C12          2.4220    -1.1650    -0.7640 ca         1 OLF       0.005600
     12 C14         -0.5180     2.3360     0.9880 ca         1 OLF      -0.118900
     13 C15         -4.4800     0.5210    -2.9810 ca         1 OLF       0.073900
     14 C16          4.7060    -1.8490    -2.2190 ca         1 OLF      -0.131600
     15 C17          4.7330    -1.7750    -0.8300 ca         1 OLF      -0.089000
     16 C18          3.6100    -1.4440    -0.0810 ca         1 OLF      -0.136300
     17 O20          6.9930    -2.4230    -2.3430 o          1 OLF      -0.822300
     18 C21          2.3740    -1.2270    -2.1520 ca         1 OLF      -0.148000
     19 C22          3.5080    -1.5730    -2.8680 ca         1 OLF      -0.093000
     20 C23         -1.8450    -1.6720     1.4960 c6         1 OLF      -0.062700
     21 C24          0.6070     2.9720     0.4710 ca         1 OLF      -0.090500
     22 C25         -0.7120     2.3060     2.3680 ca         1 OLF      -0.090500
     23 F26         -4.8340    -1.7980    -3.0210 f          1 OLF      -0.130900
     24 F27         -5.3810     0.6210    -3.9660 f          1 OLF      -0.134900
     25 O28          5.8390    -2.2730    -4.2440 o          1 OLF      -0.822300
     26 C29          1.3280     3.5090     2.6870 ca         1 OLF       0.037400
     27 C30          1.5360     3.5580     1.3170 ca         1 OLF      -0.127500
     28 C31          0.2080     2.8900     3.2230 ca         1 OLF      -0.127500
     29 CL32         2.4850     4.2330     3.7480 cl         1 OLF      -0.107400
     30 C33          3.6700    -1.3900     1.4180 c3         1 OLF      -0.033800
     31 C34         -0.9480    -2.5550     2.3700 c6         1 OLF      -0.074400
     32 C35         -2.9310    -1.0040     2.3420 c6         1 OLF      -0.074400
     33 C36         -3.7430    -2.0320     3.1200 c6         1 OLF      -0.072900
     34 C37         -1.7660    -3.5750     3.1560 c6         1 OLF      -0.072900
     35 C38         -2.8470    -2.9030     3.9930 c6         1 OLF      -0.076400
     36 H7          -0.4530    -0.0840     1.5620 h1         1 OLF       0.070700
     37 H8          -3.0810    -1.9660    -1.1300 ha         1 OLF       0.173000
     38 HN9          1.4520    -0.1730     0.7690 hn         1 OLF       0.307500
     39 H10         -4.0810     2.6230    -2.8870 ha         1 OLF       0.163000
     40 H17          5.6590    -1.9940    -0.3110 ha         1 OLF       0.148000
     41 H21          1.4590    -0.9880    -2.6770 ha         1 OLF       0.127000
     42 H22          3.4610    -1.6180    -3.9480 ha         1 OLF       0.152000
     43 H23         -2.3280    -2.3230     0.7610 hc         1 OLF       0.075700
     44 H24          0.7680     3.0040    -0.5980 ha         1 OLF       0.151000
     45 H25         -1.5910     1.8330     2.7850 ha         1 OLF       0.151000
     46 H30          2.4110     4.0430     0.9090 ha         1 OLF       0.152500
     47 H31          0.0490     2.8640     4.2920 ha         1 OLF       0.152500
     48 H33          2.9210    -2.0400     1.8760 hc         1 OLF       0.025367
     49 H33A         4.6470    -1.7080     1.7770 hc         1 OLF       0.025367
     50 H33B         3.5010    -0.3820     1.8050 hc         1 OLF       0.025367
     51 H34         -0.2100    -3.0780     1.7560 hc         1 OLF       0.045450
     52 H34A        -0.3890    -1.9210     3.0680 hc         1 OLF       0.045450
     53 H35         -2.4620    -0.3080     3.0480 hc         1 OLF       0.045450
     54 H35A        -3.5960    -0.4090     1.7130 hc         1 OLF       0.045450
     55 H36         -4.4940    -1.5240     3.7280 hc         1 OLF       0.041700
     56 H36A        -4.2900    -2.6670     2.4150 hc         1 OLF       0.041700
     57 H37         -2.2350    -4.2760     2.4570 hc         1 OLF       0.041700
     58 H37A        -1.1010    -4.1660     3.7890 hc         1 OLF       0.041700
     59 H38         -2.3790    -2.2830     4.7650 hc         1 OLF       0.036200
     60 H38A        -3.4420    -3.6550     4.5160 hc         1 OLF       0.036200
     61 N9           1.2890    -0.7880    -0.0130 ns         1 OLF      -0.462100
     62 C13          5.9580    -2.2160    -3.0050 c          1 OLF       0.924200
     63 O19         -0.3020    -2.0570    -1.0270 o          1 OLF      -0.571100
@<TRIPOS>BOND
     1     1     2 1   
     2     1     4 1   
     3     1     7 1   
     4     2     3 2   
     5     2    12 1   
     6     3     5 1   
     7     4     5 ar  
     8     4     8 ar  
     9     5     9 ar  
    10     6     7 1   
    11     6    61 1   
    12     6    63 2   
    13     7    20 1   
    14     7    36 1   
    15     8    10 ar  
    16     8    37 1   
    17     9    13 ar  
    18     9    39 1   
    19    10    13 ar  
    20    10    23 1   
    21    11    16 ar  
    22    11    18 ar  
    23    11    61 1   
    24    12    21 ar  
    25    12    22 ar  
    26    13    24 1   
    27    14    15 ar  
    28    14    19 ar  
    29    14    62 1   
    30    15    16 ar  
    31    15    40 1   
    32    16    30 1   
    33    17    62 1   
    34    18    19 ar  
    35    18    41 1   
    36    19    42 1   
    37    20    31 1   
    38    20    32 1   
    39    20    43 1   
    40    21    27 ar  
    41    21    44 1   
    42    22    28 ar  
    43    22    45 1   
    44    25    62 1   
    45    26    27 ar  
    46    26    28 ar  
    47    26    29 1   
    48    27    46 1   
    49    28    47 1   
    50    30    48 1   
    51    30    49 1   
    52    30    50 1   
    53    31    34 1   
    54    31    51 1   
    55    31    52 1   
    56    32    33 1   
    57    32    53 1   
    58    32    54 1   
    59    33    35 1   
    60    33    55 1   
    61    33    56 1   
    62    34    35 1   
    63    34    57 1   
    64    34    58 1   
    65    35    59 1   
    66    35    60 1   
    67    38    61 1   
@<TRIPOS>SUBSTRUCTURE
     1 OLF         1 TEMP              0 ****  ****    0 ROOT
