@<TRIPOS>MOLECULE
OLI
   53    52     1     0     0
SMALL
bcc


@<TRIPOS>ATOM
      1 C1           1.2270    -0.1670    -8.7580 c          1 OLI       0.927600
      2 O1           0.1570    -0.6640    -9.1620 o          1 OLI      -0.849300
      3 O2           2.2490     0.0450    -9.4460 o          1 OLI      -0.849300
      4 C2           1.3210     0.2400    -7.2770 c3         1 OLI      -0.204400
      5 C3           0.1110    -0.0670    -6.4100 c3         1 OLI      -0.053400
      6 C4           0.3070     0.3700    -4.9640 c3         1 OLI      -0.079400
      7 C5          -0.8730     0.0410    -4.0580 c3         1 OLI      -0.074400
      8 C6          -0.6820     0.5350    -2.6290 c3         1 OLI      -0.076400
      9 C7          -1.8200     0.1440    -1.6950 c3         1 OLI      -0.072400
     10 C8          -1.6680     0.7400    -0.2940 c3         1 OLI      -0.047200
     11 C9          -2.7800     0.3220     0.6160 c2         1 OLI      -0.152200
     12 C10         -2.6870    -0.2920     1.7950 c2         1 OLI      -0.181200
     13 C11         -1.4440    -0.6730     2.5360 c3         1 OLI      -0.040200
     14 C12         -1.4170    -0.0900     3.9500 c3         1 OLI      -0.072400
     15 C13         -0.1400    -0.4290     4.7070 c3         1 OLI      -0.075400
     16 C14         -0.1630     0.0330     6.1590 c3         1 OLI      -0.073400
     17 C15          1.1330    -0.2620     6.9040 c3         1 OLI      -0.075400
     18 C16          1.0880     0.1390     8.3730 c3         1 OLI      -0.075400
     19 C17          2.3860    -0.1480     9.1170 c3         1 OLI      -0.075400
     20 C18          2.3230     0.2350    10.5890 c3         1 OLI      -0.088100
     21 H21          1.5390     1.3140    -7.2330 hc         1 OLI       0.014200
     22 H22          2.2080    -0.2410    -6.8480 hc         1 OLI       0.014200
     23 H31         -0.1020    -1.1400    -6.4380 hc         1 OLI       0.037700
     24 H32         -0.7760     0.4250    -6.8200 hc         1 OLI       0.037700
     25 H41          0.4970     1.4490    -4.9320 hc         1 OLI       0.023700
     26 H42          1.2100    -0.1020    -4.5590 hc         1 OLI       0.023700
     27 H51         -1.0340    -1.0430    -4.0530 hc         1 OLI       0.034200
     28 H52         -1.7860     0.4800    -4.4740 hc         1 OLI       0.034200
     29 H61         -0.5750     1.6250    -2.6360 hc         1 OLI       0.032200
     30 H62          0.2600     0.1430    -2.2310 hc         1 OLI       0.032200
     31 H71         -1.8750    -0.9470    -1.6230 hc         1 OLI       0.037200
     32 H72         -2.7740     0.4700    -2.1220 hc         1 OLI       0.037200
     33 H81         -1.6640     1.8330    -0.3830 hc         1 OLI       0.043200
     34 H82         -0.6950     0.4640     0.1180 hc         1 OLI       0.043200
     35 H9          -3.7790     0.5360     0.2430 ha         1 OLI       0.113000
     36 H10         -3.6160    -0.5380     2.3030 ha         1 OLI       0.108000
     37 H111        -0.5480    -0.3600     1.9940 hc         1 OLI       0.045200
     38 H112        -1.3870    -1.7650     2.6130 hc         1 OLI       0.045200
     39 H121        -2.2830    -0.4650     4.5070 hc         1 OLI       0.037200
     40 H122        -1.5350     0.9970     3.8990 hc         1 OLI       0.037200
     41 H131         0.7160     0.0200     4.1930 hc         1 OLI       0.038200
     42 H132         0.0250    -1.5120     4.6770 hc         1 OLI       0.038200
     43 H141        -0.9980    -0.4510     6.6770 hc         1 OLI       0.035700
     44 H142        -0.3670     1.1090     6.1980 hc         1 OLI       0.035700
     45 H151         1.9620     0.2560     6.4100 hc         1 OLI       0.037700
     46 H152         1.3590    -1.3320     6.8290 hc         1 OLI       0.037700
     47 H161         0.2640    -0.3890     8.8670 hc         1 OLI       0.035700
     48 H162         0.8520     1.2060     8.4540 hc         1 OLI       0.035700
     49 H171         3.2070     0.3900     8.6320 hc         1 OLI       0.037200
     50 H172         2.6270    -1.2120     9.0260 hc         1 OLI       0.037200
     51 H181         3.2630     0.0220    11.1010 hc         1 OLI       0.029700
     52 H182         2.1120     1.2990    10.7120 hc         1 OLI       0.029700
     53 H183         1.5340    -0.3160    11.1040 hc         1 OLI       0.029700
@<TRIPOS>BOND
     1     1     2 1   
     2     1     3 1   
     3     1     4 1   
     4     4     5 1   
     5     4    21 1   
     6     4    22 1   
     7     5     6 1   
     8     5    23 1   
     9     5    24 1   
    10     6     7 1   
    11     6    25 1   
    12     6    26 1   
    13     7     8 1   
    14     7    27 1   
    15     7    28 1   
    16     8     9 1   
    17     8    29 1   
    18     8    30 1   
    19     9    10 1   
    20     9    31 1   
    21     9    32 1   
    22    10    11 1   
    23    10    33 1   
    24    10    34 1   
    25    11    12 2   
    26    11    35 1   
    27    12    13 1   
    28    12    36 1   
    29    13    14 1   
    30    13    37 1   
    31    13    38 1   
    32    14    15 1   
    33    14    39 1   
    34    14    40 1   
    35    15    16 1   
    36    15    41 1   
    37    15    42 1   
    38    16    17 1   
    39    16    43 1   
    40    16    44 1   
    41    17    18 1   
    42    17    45 1   
    43    17    46 1   
    44    18    19 1   
    45    18    47 1   
    46    18    48 1   
    47    19    20 1   
    48    19    49 1   
    49    19    50 1   
    50    20    51 1   
    51    20    52 1   
    52    20    53 1   
@<TRIPOS>SUBSTRUCTURE
     1 OLI         1 TEMP              0 ****  ****    0 ROOT
