@<TRIPOS>MOLECULE
OLI
   53    52     1     0     0
SMALL
No Charge or Current Charge


@<TRIPOS>ATOM
      1 C1           2.3110    -0.2360    -7.5130 c          1 OLI       0.717000
      2 O1           1.7050     0.0440    -8.5350 o          1 OLI      -0.744000
      3 O2           3.1100    -1.1570    -7.4320 o          1 OLI      -0.744000
      4 C2           2.0080     0.5780    -6.2410 c3         1 OLI      -0.204400
      5 C3           0.8400    -0.0690    -5.4580 c3         1 OLI      -0.053400
      6 C4           0.4770     0.6950    -4.1650 c3         1 OLI      -0.079400
      7 C5          -0.6890     0.0480    -3.3850 c3         1 OLI      -0.074400
      8 C6          -1.0510     0.8120    -2.0930 c3         1 OLI      -0.076400
      9 C7          -2.2170     0.1640    -1.3140 c3         1 OLI      -0.072400
     10 C8          -2.5780     0.9250    -0.0220 c3         1 OLI      -0.047200
     11 C9          -3.7190     0.2650     0.7300 c2         1 OLI      -0.202200
     12 C10         -3.6160    -0.5890     1.7640 c2         1 OLI      -0.231200
     13 C11         -2.3350    -1.1140     2.3850 c3         1 OLI      -0.040200
     14 C12         -1.9240    -0.3090     3.6350 c3         1 OLI      -0.072400
     15 C13         -0.6170    -0.8180     4.2810 c3         1 OLI      -0.075400
     16 C14         -0.2050    -0.0080     5.5300 c3         1 OLI      -0.073400
     17 C15          1.1020    -0.5150     6.1760 c3         1 OLI      -0.075400
     18 C16          1.5140     0.2950     7.4250 c3         1 OLI      -0.075400
     19 C17          2.8220    -0.2130     8.0710 c3         1 OLI      -0.075400
     20 C18          3.2330     0.5960     9.3170 c3         1 OLI      -0.088100
     21 H21          1.6710     1.5880    -6.5030 hc         1 OLI       0.014200
     22 H22          2.8700     0.5630    -5.5610 hc         1 OLI       0.014200
     23 H31          1.1060    -1.1030    -5.2020 hc         1 OLI       0.037700
     24 H32         -0.0440    -0.1200    -6.1060 hc         1 OLI       0.037700
     25 H41          0.2090     1.7280    -4.4200 hc         1 OLI       0.023700
     26 H42          1.3600     0.7440    -3.5150 hc         1 OLI       0.023700
     27 H51         -0.4210    -0.9850    -3.1300 hc         1 OLI       0.034200
     28 H52         -1.5720    -0.0010    -4.0340 hc         1 OLI       0.034200
     29 H61         -1.3180     1.8450    -2.3490 hc         1 OLI       0.032200
     30 H62         -0.1670     0.8610    -1.4440 hc         1 OLI       0.032200
     31 H71         -1.9490    -0.8680    -1.0580 hc         1 OLI       0.037200
     32 H72         -3.1010     0.1150    -1.9610 hc         1 OLI       0.037200
     33 H81         -2.8520     1.9570    -0.2730 hc         1 OLI       0.043200
     34 H82         -1.6860     0.9960     0.6120 hc         1 OLI       0.043200
     35 H9          -4.7080     0.5560     0.3690 ha         1 OLI       0.163000
     36 H10         -4.5220    -0.9860     2.2250 ha         1 OLI       0.158000
     37 H111        -1.5140    -1.0910     1.6590 hc         1 OLI       0.045200
     38 H112        -2.4640    -2.1690     2.6590 hc         1 OLI       0.045200
     39 H121        -2.7340    -0.3540     4.3730 hc         1 OLI       0.037200
     40 H122        -1.8020     0.7450     3.3560 hc         1 OLI       0.037200
     41 H131         0.1920    -0.7730     3.5410 hc         1 OLI       0.038200
     42 H132        -0.7390    -1.8720     4.5600 hc         1 OLI       0.038200
     43 H141        -1.0140    -0.0520     6.2710 hc         1 OLI       0.035700
     44 H142        -0.0830     1.0470     5.2520 hc         1 OLI       0.035700
     45 H151         1.9110    -0.4710     5.4360 hc         1 OLI       0.037700
     46 H152         0.9810    -1.5700     6.4550 hc         1 OLI       0.037700
     47 H161         0.7060     0.2510     8.1660 hc         1 OLI       0.035700
     48 H162         1.6360     1.3490     7.1460 hc         1 OLI       0.035700
     49 H171         3.6330    -0.1680     7.3340 hc         1 OLI       0.037200
     50 H172         2.7030    -1.2660     8.3530 hc         1 OLI       0.037200
     51 H181         4.1640     0.1990     9.7400 hc         1 OLI       0.029700
     52 H182         3.3940     1.6500     9.0600 hc         1 OLI       0.029700
     53 H183         2.4550     0.5410    10.0890 hc         1 OLI       0.029700
@<TRIPOS>BOND
     1     1     2 1   
     2     1     3 1   
     3     1     4 1   
     4     4     5 1   
     5     4    21 1   
     6     4    22 1   
     7     5     6 1   
     8     5    23 1   
     9     5    24 1   
    10     6     7 1   
    11     6    25 1   
    12     6    26 1   
    13     7     8 1   
    14     7    27 1   
    15     7    28 1   
    16     8     9 1   
    17     8    29 1   
    18     8    30 1   
    19     9    10 1   
    20     9    31 1   
    21     9    32 1   
    22    10    11 1   
    23    10    33 1   
    24    10    34 1   
    25    11    12 2   
    26    11    35 1   
    27    12    13 1   
    28    12    36 1   
    29    13    14 1   
    30    13    37 1   
    31    13    38 1   
    32    14    15 1   
    33    14    39 1   
    34    14    40 1   
    35    15    16 1   
    36    15    41 1   
    37    15    42 1   
    38    16    17 1   
    39    16    43 1   
    40    16    44 1   
    41    17    18 1   
    42    17    45 1   
    43    17    46 1   
    44    18    19 1   
    45    18    47 1   
    46    18    48 1   
    47    19    20 1   
    48    19    49 1   
    49    19    50 1   
    50    20    51 1   
    51    20    52 1   
    52    20    53 1   
@<TRIPOS>SUBSTRUCTURE
     1 OLI         1 TEMP              0 ****  ****    0 ROOT
