@<TRIPOS>MOLECULE
OLJ
  105   112     1     0     0
SMALL
No Charge or Current Charge


@<TRIPOS>ATOM
      1 C10        -15.8810   -20.0260    15.2860 c          1 OLJ       0.593100
      2 C17        -21.6100   -18.9510    13.9240 c5         1 OLJ       0.186300
      3 C21        -12.6740   -15.8710    15.6850 ca         1 OLJ       0.554300
      4 C24        -10.4810   -14.2950    15.2890 ca         1 OLJ       0.166000
      5 C26        -12.1580   -15.5960    14.3760 ca         1 OLJ       0.320300
      6 C28         -9.2360   -13.1740    17.5760 ca         1 OLJ       0.165100
      7 C01        -13.4320   -19.5400    15.6920 c5         1 OLJ       0.029700
      8 C02        -12.7510   -18.6430    16.7730 c5         1 OLJ      -0.111400
      9 C03        -13.7920   -17.5040    16.9840 c5         1 OLJ       0.165300
     10 C04        -15.1310   -18.2950    17.0000 c5         1 OLJ       0.104000
     11 C06        -12.9260   -21.0050    15.8570 c          1 OLJ       0.592100
     12 C09        -12.0020   -22.8620    14.4850 cx         1 OLJ      -0.069600
     13 C11        -17.3100   -20.1660    15.8970 c3         1 OLJ       0.059700
     14 C18        -17.5250   -21.5810    16.5010 c3         1 OLJ      -0.086400
     15 C19        -16.5920   -21.9380    17.6880 c3         1 OLJ      -0.080400
     16 C23        -11.0070   -14.5500    16.6020 ca         1 OLJ       0.306000
     17 C27        -10.3770   -13.9860    17.7230 ca         1 OLJ      -0.204000
     18 C29         -8.7230   -12.9260    16.2960 ca         1 OLJ      -0.140000
     19 C30         -9.3410   -13.4820    15.1630 ca         1 OLJ      -0.029000
     20 C32         -9.0280   -12.7920    20.0070 c3         1 OLJ       0.145900
     21 C33        -12.8000   -16.1750    13.1220 c3         1 OLJ      -0.139400
     22 C34        -10.9830   -23.4840    15.4610 c          1 OLJ       0.681100
     23 C40         -8.1030   -21.1360    17.1120 cx         1 OLJ      -0.396000
     24 C41         -7.1870   -20.5050    16.0780 cx         1 OLJ      -0.080400
     25 C42         -6.6320   -20.9210    17.4230 cx         1 OLJ      -0.080400
     26 C43         -9.1610   -20.2750    17.8140 c3         1 OLJ      -0.044100
     27 C44        -13.1540   -23.6630    13.8930 cx         1 OLJ      -0.035500
     28 C45        -13.4980   -25.0250    14.3980 c2         1 OLJ      -0.190200
     29 C46        -14.5110   -25.3170    15.2370 c2         1 OLJ      -0.189200
     30 C47        -15.5210   -24.3440    15.8310 c3         1 OLJ      -0.048200
     31 C48        -15.4760   -24.3000    17.3750 c3         1 OLJ      -0.074400
     32 C49        -11.9250   -23.3870    13.0640 cx         1 OLJ      -0.096400
     33 C50        -16.5810   -23.4450    18.0590 c3         1 OLJ      -0.066400
     34 C51        -21.6240   -17.3990    14.1740 c5         1 OLJ      -0.063900
     35 C52        -21.8040   -16.7440    12.7920 cx         1 OLJ      -0.133200
     36 C53        -22.1690   -17.8010    11.7920 cx         1 OLJ      -0.133200
     37 C54        -22.2410   -19.1640    12.5070 c5         1 OLJ      -0.063900
     38 C55        -20.8010   -17.1510    11.7310 cx         1 OLJ      -0.109400
     39 N05        -14.8690   -19.3980    16.0440 n          1 OLJ      -0.385800
     40 N08        -12.3440   -21.4620    14.6890 ns         1 OLJ      -0.475900
     41 N13        -18.3140   -19.9150    14.8450 ns         1 OLJ      -0.479900
     42 N22        -12.1030   -15.3280    16.7960 nb         1 OLJ      -0.757000
     43 N25        -11.0600   -14.8170    14.1750 nb         1 OLJ      -0.613000
     44 N35         -9.9610   -22.6430    15.7460 ns         1 OLJ      -0.574300
     45 O07        -13.0020   -21.6910    16.8670 o          1 OLJ      -0.568100
     46 O12        -15.6100   -20.5200    14.1970 o          1 OLJ      -0.624100
     47 O15        -20.2350   -19.4200    13.8600 os         1 OLJ      -0.455100
     48 O16        -20.0910   -19.3240    16.1680 o          1 OLJ      -0.552000
     49 O20        -13.8190   -16.6500    15.7980 os         1 OLJ      -0.445300
     50 O31         -8.5860   -12.6010    18.6500 os         1 OLJ      -0.335100
     51 O36        -11.0530   -24.6150    15.9190 o          1 OLJ      -0.538100
     52 O38         -9.2850   -23.3920    18.0820 o          1 OLJ      -0.517000
     53 O39         -7.6730   -23.6360    16.1310 o          1 OLJ      -0.517000
     54 S37         -8.7230   -22.8830    16.8260 s6         1 OLJ       1.256800
     55 H171       -22.1540   -19.5160    14.6940 h1         1 OLJ       0.068700
     56 H011       -13.2400   -19.1730    14.6740 h1         1 OLJ       0.075700
     57 H022       -12.6070   -19.1840    17.7160 hc         1 OLJ       0.076200
     58 H021       -11.7610   -18.2890    16.4650 hc         1 OLJ       0.076200
     59 H031       -13.6520   -16.9180    17.9030 h1         1 OLJ       0.089700
     60 H041       -15.9730   -17.6610    16.6910 h1         1 OLJ       0.078200
     61 H042       -15.3450   -18.6920    18.0010 h1         1 OLJ       0.078200
     62 H111       -17.4410   -19.4180    16.6860 h1         1 OLJ       0.079700
     63 H181       -18.5630   -21.6700    16.8450 hc         1 OLJ       0.058200
     64 H182       -17.4120   -22.3170    15.6990 hc         1 OLJ       0.058200
     65 H192       -15.5650   -21.6190    17.4850 hc         1 OLJ       0.049200
     66 H191       -16.9200   -21.3610    18.5620 hc         1 OLJ       0.049200
     67 H271       -10.7940   -14.1930    18.7030 ha         1 OLJ       0.133000
     68 H291        -7.8430   -12.3000    16.1800 ha         1 OLJ       0.135000
     69 H301        -8.9330   -13.2800    14.1750 ha         1 OLJ       0.136000
     70 H321        -8.3710   -12.2510    20.6990 h1         1 OLJ       0.044700
     71 H323       -10.0490   -12.4140    20.1420 h1         1 OLJ       0.044700
     72 H322        -9.0050   -13.8550    20.2780 h1         1 OLJ       0.044700
     73 H332       -12.3430   -15.7790    12.2070 hc         1 OLJ       0.061033
     74 H331       -12.6950   -17.2660    13.1020 hc         1 OLJ       0.061033
     75 H333       -13.8690   -15.9390    13.0870 hc         1 OLJ       0.061033
     76 H411        -6.8940   -21.0930    15.2100 hc         1 OLJ       0.087950
     77 H412        -7.2860   -19.4390    15.8830 hc         1 OLJ       0.087950
     78 H421        -5.9730   -21.7870    17.4500 hc         1 OLJ       0.087950
     79 H422        -6.3630   -20.1330    18.1230 hc         1 OLJ       0.087950
     80 H433        -8.8040   -19.2490    17.9690 hc         1 OLJ       0.054700
     81 H432       -10.0850   -20.2130    17.2270 hc         1 OLJ       0.054700
     82 H431        -9.4170   -20.6820    18.8000 hc         1 OLJ       0.054700
     83 H441       -14.0340   -23.0970    13.5950 hc         1 OLJ       0.101700
     84 H451       -12.8510   -25.8300    14.0420 ha         1 OLJ       0.190000
     85 H461       -14.6690   -26.3530    15.5430 ha         1 OLJ       0.168000
     86 H471       -15.3520   -23.3310    15.4500 hc         1 OLJ       0.046700
     87 H472       -16.5300   -24.6330    15.5120 hc         1 OLJ       0.046700
     88 H481       -15.5560   -25.3250    17.7570 hc         1 OLJ       0.047700
     89 H482       -14.4920   -23.9320    17.6900 hc         1 OLJ       0.047700
     90 H491       -11.2540   -24.2180    12.8600 hc         1 OLJ       0.087200
     91 H492       -12.0130   -22.6720    12.2500 hc         1 OLJ       0.087200
     92 H501       -17.5660   -23.8840    17.8570 hc         1 OLJ       0.037200
     93 H502       -16.4330   -23.5250    19.1430 hc         1 OLJ       0.037200
     94 H511       -20.7210   -17.0400    14.6800 hc         1 OLJ       0.061700
     95 H512       -22.4640   -17.1380    14.8280 hc         1 OLJ       0.061700
     96 H521       -22.2560   -15.7580    12.7090 hc         1 OLJ       0.087200
     97 H531       -22.8790   -17.5600    11.0040 hc         1 OLJ       0.087200
     98 H542       -23.2850   -19.4810    12.6090 hc         1 OLJ       0.061700
     99 H541       -21.7350   -19.9550    11.9420 hc         1 OLJ       0.061700
    100 H551       -20.6180   -16.4480    10.9220 hc         1 OLJ       0.076200
    101 H552       -19.9250   -17.7260    12.0190 hc         1 OLJ       0.076200
    102 H081       -12.3370   -20.8240    13.9010 hn         1 OLJ       0.323500
    103 H131       -18.0510   -20.0510    13.8760 hn         1 OLJ       0.333500
    104 H351        -9.9420   -21.7300    15.3290 hn         1 OLJ       0.336500
    105 C14        -19.6040   -19.5300    15.0660 c          1 OLJ       0.637100
@<TRIPOS>BOND
     1     1    13 1   
     2     1    39 1   
     3     1    46 2   
     4     2    34 1   
     5     2    37 1   
     6     2    47 1   
     7     2    55 1   
     8     3     5 ar  
     9     3    42 ar  
    10     3    49 1   
    11     4    16 ar  
    12     4    19 ar  
    13     4    43 ar  
    14     5    21 1   
    15     5    43 ar  
    16     6    17 ar  
    17     6    18 ar  
    18     6    50 1   
    19     7     8 1   
    20     7    11 1   
    21     7    39 1   
    22     7    56 1   
    23     8     9 1   
    24     8    57 1   
    25     8    58 1   
    26     9    10 1   
    27     9    49 1   
    28     9    59 1   
    29    10    39 1   
    30    10    60 1   
    31    10    61 1   
    32    11    40 1   
    33    11    45 2   
    34    12    22 1   
    35    12    27 1   
    36    12    32 1   
    37    12    40 1   
    38    13    14 1   
    39    13    41 1   
    40    13    62 1   
    41    14    15 1   
    42    14    63 1   
    43    14    64 1   
    44    15    33 1   
    45    15    65 1   
    46    15    66 1   
    47    16    17 ar  
    48    16    42 ar  
    49    17    67 1   
    50    18    19 ar  
    51    18    68 1   
    52    19    69 1   
    53    20    50 1   
    54    20    70 1   
    55    20    71 1   
    56    20    72 1   
    57    21    73 1   
    58    21    74 1   
    59    21    75 1   
    60    22    44 1   
    61    22    51 2   
    62    23    24 1   
    63    23    25 1   
    64    23    26 1   
    65    23    54 1   
    66    24    25 1   
    67    24    76 1   
    68    24    77 1   
    69    25    78 1   
    70    25    79 1   
    71    26    80 1   
    72    26    81 1   
    73    26    82 1   
    74    27    28 1   
    75    27    32 1   
    76    27    83 1   
    77    28    29 2   
    78    28    84 1   
    79    29    30 1   
    80    29    85 1   
    81    30    31 1   
    82    30    86 1   
    83    30    87 1   
    84    31    33 1   
    85    31    88 1   
    86    31    89 1   
    87    32    90 1   
    88    32    91 1   
    89    33    92 1   
    90    33    93 1   
    91    34    35 1   
    92    34    94 1   
    93    34    95 1   
    94    35    36 1   
    95    35    38 1   
    96    35    96 1   
    97    36    37 1   
    98    36    38 1   
    99    36    97 1   
   100    37    98 1   
   101    37    99 1   
   102    38   100 1   
   103    38   101 1   
   104    40   102 1   
   105    41   103 1   
   106    41   105 1   
   107    44    54 1   
   108    44   104 1   
   109    47   105 1   
   110    48   105 2   
   111    52    54 2   
   112    53    54 2   
@<TRIPOS>SUBSTRUCTURE
     1 OLJ         1 TEMP              0 ****  ****    0 ROOT
