@<TRIPOS>MOLECULE
OLJ
  105   112     1     0     0
SMALL
abcg2


@<TRIPOS>ATOM
      1 C10        -15.9830   -20.3530    15.8240 c          1 OLJ       0.593100
      2 C17        -19.4920   -17.4460    13.5870 c5         1 OLJ       0.186300
      3 C21        -13.5550   -15.8050    16.1460 ca         1 OLJ       0.554300
      4 C24        -12.2190   -13.5940    15.5180 ca         1 OLJ       0.166000
      5 C26        -14.0550   -14.9050    15.1380 ca         1 OLJ       0.320300
      6 C28         -9.8140   -13.1040    16.8630 ca         1 OLJ       0.165100
      7 C01        -13.6870   -19.6290    15.7580 c5         1 OLJ       0.029700
      8 C02        -12.8490   -18.7640    16.7050 c5         1 OLJ      -0.111400
      9 C03        -13.8850   -17.8410    17.3310 c5         1 OLJ       0.165300
     10 C04        -15.0670   -18.7660    17.5470 c5         1 OLJ       0.104000
     11 C06        -13.1490   -21.0480    15.6550 c          1 OLJ       0.592100
     12 C09        -12.2210   -22.7330    14.2190 cx         1 OLJ      -0.069600
     13 C11        -17.3230   -20.4900    16.5530 c3         1 OLJ       0.059700
     14 C18        -17.5040   -21.9450    16.9900 c3         1 OLJ      -0.086400
     15 C19        -16.5030   -22.3770    18.0600 c3         1 OLJ      -0.080400
     16 C23        -11.7420   -14.4940    16.4890 ca         1 OLJ       0.306000
     17 C27        -10.5300   -14.2430    17.1580 ca         1 OLJ      -0.204000
     18 C29        -10.2940   -12.1930    15.8900 ca         1 OLJ      -0.140000
     19 C30        -11.4680   -12.4360    15.2340 ca         1 OLJ      -0.029000
     20 C32         -8.1060   -13.6300    18.4170 c3         1 OLJ       0.145900
     21 C33        -15.3290   -15.2040    14.4190 c3         1 OLJ      -0.139400
     22 C34        -10.9810   -23.2710    14.8520 c          1 OLJ       0.681100
     23 C40         -8.8250   -21.2150    17.4080 cx         1 OLJ      -0.396000
     24 C41         -8.4560   -19.9030    16.7730 cx         1 OLJ      -0.080400
     25 C42         -7.4860   -20.5920    17.6720 cx         1 OLJ      -0.080400
     26 C43         -9.8680   -21.2860    18.4930 c3         1 OLJ      -0.044100
     27 C44        -13.4280   -23.6540    14.0290 cx         1 OLJ      -0.035500
     28 C45        -13.5270   -25.0320    14.5490 c2         1 OLJ      -0.190200
     29 C46        -14.4650   -25.4490    15.4010 c2         1 OLJ      -0.189200
     30 C47        -15.5340   -24.6310    16.0570 c3         1 OLJ      -0.048200
     31 C48        -15.4120   -24.6620    17.5810 c3         1 OLJ      -0.074400
     32 C49        -12.5850   -23.2760    12.8650 cx         1 OLJ      -0.096400
     33 C50        -16.4980   -23.8890    18.3290 c3         1 OLJ      -0.066400
     34 C51        -18.3230   -17.1400    12.6400 c5         1 OLJ      -0.063900
     35 C52        -18.7550   -17.6230    11.2720 cx         1 OLJ      -0.133200
     36 C53        -20.2380   -17.8520    11.3040 cx         1 OLJ      -0.133200
     37 C54        -20.7330   -17.4990    12.6910 c5         1 OLJ      -0.063900
     38 C55        -19.3020   -19.0140    11.1500 cx         1 OLJ      -0.109400
     39 N05        -14.9940   -19.6520    16.3930 n          1 OLJ      -0.385800
     40 N08        -12.5370   -21.3700    14.4910 ns         1 OLJ      -0.475900
     41 N13        -18.3920   -20.1130    15.6580 ns         1 OLJ      -0.479900
     42 N22        -12.4500   -15.6140    16.7870 nb         1 OLJ      -0.757000
     43 N25        -13.3800   -13.8320    14.8560 nb         1 OLJ      -0.613000
     44 N35        -10.2400   -22.3190    15.5090 ns         1 OLJ      -0.574300
     45 O07        -13.2200   -21.8260    16.5850 o          1 OLJ      -0.568100
     46 O12        -15.8180   -20.9250    14.7540 o          1 OLJ      -0.624100
     47 O15        -19.3560   -18.7300    14.2180 os         1 OLJ      -0.455100
     48 O16        -17.8190   -17.9220    15.6590 o          1 OLJ      -0.552000
     49 O20        -14.3210   -16.8610    16.3890 os         1 OLJ      -0.445300
     50 O31         -8.6510   -12.7650    17.4380 os         1 OLJ      -0.335100
     51 O36        -10.6450   -24.4310    14.7840 o          1 OLJ      -0.538100
     52 O38         -8.9890   -23.8370    17.1130 o          1 OLJ      -0.517000
     53 O39         -7.6930   -22.5470    15.4130 o          1 OLJ      -0.517000
     54 S37         -8.8090   -22.6240    16.3390 s6         1 OLJ       1.256800
     55 H171       -19.5930   -16.6860    14.3630 h1         1 OLJ       0.068700
     56 H011       -13.7510   -19.1690    14.7670 h1         1 OLJ       0.075700
     57 H022       -12.4110   -19.3710    17.5010 hc         1 OLJ       0.076200
     58 H021       -12.0430   -18.2410    16.1950 hc         1 OLJ       0.076200
     59 H031       -13.5440   -17.3680    18.2520 h1         1 OLJ       0.089700
     60 H041       -16.0070   -18.2200    17.5760 h1         1 OLJ       0.078200
     61 H042       -14.9430   -19.3120    18.4850 h1         1 OLJ       0.078200
     62 H111       -17.3670   -19.8570    17.4410 h1         1 OLJ       0.079700
     63 H181       -18.5190   -22.0570    17.3810 hc         1 OLJ       0.058200
     64 H182       -17.4380   -22.5900    16.1100 hc         1 OLJ       0.058200
     65 H192       -15.4910   -22.0640    17.7900 hc         1 OLJ       0.049200
     66 H191       -16.7460   -21.8420    18.9820 hc         1 OLJ       0.049200
     67 H271       -10.1970   -14.9660    17.8910 ha         1 OLJ       0.133000
     68 H291        -9.7180   -11.3030    15.6730 ha         1 OLJ       0.135000
     69 H301       -11.8370   -11.7430    14.4900 ha         1 OLJ       0.136000
     70 H321        -7.1760   -13.1750    18.7460 h1         1 OLJ       0.044700
     71 H323        -8.7710   -13.7390    19.2770 h1         1 OLJ       0.044700
     72 H322        -7.8910   -14.6200    18.0080 h1         1 OLJ       0.044700
     73 H332       -15.5450   -14.4100    13.7070 hc         1 OLJ       0.061033
     74 H331       -15.2690   -16.1500    13.8790 hc         1 OLJ       0.061033
     75 H333       -16.1690   -15.2980    15.1090 hc         1 OLJ       0.061033
     76 H411        -8.2280   -19.8680    15.7150 hc         1 OLJ       0.087950
     77 H412        -8.9930   -19.0380    17.1430 hc         1 OLJ       0.087950
     78 H421        -6.6030   -21.0260    17.2240 hc         1 OLJ       0.087950
     79 H422        -7.3400   -20.2150    18.6750 hc         1 OLJ       0.087950
     80 H433        -9.8340   -20.3680    19.0780 hc         1 OLJ       0.054700
     81 H432       -10.8760   -21.3850    18.0890 hc         1 OLJ       0.054700
     82 H431        -9.6860   -22.1190    19.1690 hc         1 OLJ       0.054700
     83 H441       -14.3390   -23.0730    14.1120 hc         1 OLJ       0.101700
     84 H451       -12.8100   -25.7530    14.1770 ha         1 OLJ       0.190000
     85 H461       -14.4530   -26.5010    15.6740 ha         1 OLJ       0.168000
     86 H471       -15.5020   -23.5990    15.7100 hc         1 OLJ       0.046700
     87 H472       -16.5150   -25.0300    15.7730 hc         1 OLJ       0.046700
     88 H481       -15.4250   -25.7040    17.9180 hc         1 OLJ       0.047700
     89 H482       -14.4330   -24.2600    17.8590 hc         1 OLJ       0.047700
     90 H491       -11.9160   -24.0190    12.4480 hc         1 OLJ       0.087200
     91 H492       -12.9810   -22.5710    12.1450 hc         1 OLJ       0.087200
     92 H501       -17.4810   -24.3120    18.0960 hc         1 OLJ       0.037200
     93 H502       -16.3480   -24.0590    19.3980 hc         1 OLJ       0.037200
     94 H511       -17.3810   -17.5710    12.9860 hc         1 OLJ       0.061700
     95 H512       -18.1750   -16.0570    12.6110 hc         1 OLJ       0.061700
     96 H521       -18.2800   -17.1830    10.4040 hc         1 OLJ       0.087200
     97 H531       -20.8610   -17.5820    10.4600 hc         1 OLJ       0.087200
     98 H542       -21.1820   -16.5030    12.6630 hc         1 OLJ       0.061700
     99 H541       -21.4920   -18.1770    13.0860 hc         1 OLJ       0.061700
    100 H551       -19.2530   -19.4660    10.1670 hc         1 OLJ       0.076200
    101 H552       -19.1740   -19.7230    11.9580 hc         1 OLJ       0.076200
    102 H081       -12.5570   -20.7170    13.7220 hn         1 OLJ       0.323500
    103 H131       -18.8340   -20.8420    15.1200 hn         1 OLJ       0.333500
    104 H351       -10.4560   -21.3430    15.3420 hn         1 OLJ       0.336500
    105 C14        -18.4670   -18.8420    15.2060 c          1 OLJ       0.637100
@<TRIPOS>BOND
     1     1    13 1   
     2     1    39 1   
     3     1    46 2   
     4     2    34 1   
     5     2    37 1   
     6     2    47 1   
     7     2    55 1   
     8     3     5 ar  
     9     3    42 ar  
    10     3    49 1   
    11     4    16 ar  
    12     4    19 ar  
    13     4    43 ar  
    14     5    21 1   
    15     5    43 ar  
    16     6    17 ar  
    17     6    18 ar  
    18     6    50 1   
    19     7     8 1   
    20     7    11 1   
    21     7    39 1   
    22     7    56 1   
    23     8     9 1   
    24     8    57 1   
    25     8    58 1   
    26     9    10 1   
    27     9    49 1   
    28     9    59 1   
    29    10    39 1   
    30    10    60 1   
    31    10    61 1   
    32    11    40 1   
    33    11    45 2   
    34    12    22 1   
    35    12    27 1   
    36    12    32 1   
    37    12    40 1   
    38    13    14 1   
    39    13    41 1   
    40    13    62 1   
    41    14    15 1   
    42    14    63 1   
    43    14    64 1   
    44    15    33 1   
    45    15    65 1   
    46    15    66 1   
    47    16    17 ar  
    48    16    42 ar  
    49    17    67 1   
    50    18    19 ar  
    51    18    68 1   
    52    19    69 1   
    53    20    50 1   
    54    20    70 1   
    55    20    71 1   
    56    20    72 1   
    57    21    73 1   
    58    21    74 1   
    59    21    75 1   
    60    22    44 1   
    61    22    51 2   
    62    23    24 1   
    63    23    25 1   
    64    23    26 1   
    65    23    54 1   
    66    24    25 1   
    67    24    76 1   
    68    24    77 1   
    69    25    78 1   
    70    25    79 1   
    71    26    80 1   
    72    26    81 1   
    73    26    82 1   
    74    27    28 1   
    75    27    32 1   
    76    27    83 1   
    77    28    29 2   
    78    28    84 1   
    79    29    30 1   
    80    29    85 1   
    81    30    31 1   
    82    30    86 1   
    83    30    87 1   
    84    31    33 1   
    85    31    88 1   
    86    31    89 1   
    87    32    90 1   
    88    32    91 1   
    89    33    92 1   
    90    33    93 1   
    91    34    35 1   
    92    34    94 1   
    93    34    95 1   
    94    35    36 1   
    95    35    38 1   
    96    35    96 1   
    97    36    37 1   
    98    36    38 1   
    99    36    97 1   
   100    37    98 1   
   101    37    99 1   
   102    38   100 1   
   103    38   101 1   
   104    40   102 1   
   105    41   103 1   
   106    41   105 1   
   107    44    54 1   
   108    44   104 1   
   109    47   105 1   
   110    48   105 2   
   111    52    54 2   
   112    53    54 2   
@<TRIPOS>SUBSTRUCTURE
     1 OLJ         1 TEMP              0 ****  ****    0 ROOT
