@<TRIPOS>MOLECULE
OLM
   58    61     1     0     0
SMALL
No Charge or Current Charge


@<TRIPOS>ATOM
      1 C4           2.0870     1.9480     0.9590 ca         1 OLM      -0.095500
      2 C3           0.8070     1.8470     1.5300 ca         1 OLM      -0.091000
      3 O3          -5.6230    -2.5600    -0.1900 oh         1 OLM      -0.648000
      4 C2          -0.0740     0.8240     1.1280 ca         1 OLM      -0.077300
      5 O2          -1.8580    -2.2490     2.0030 o          1 OLM      -0.702000
      6 C1          -1.4670     0.7380     1.7530 c3         1 OLM       0.109900
      7 O1          -3.3710    -3.2050     0.8600 o          1 OLM      -0.702000
      8 C20         -3.2680     5.1210     0.7560 c3         1 OLM      -0.088100
      9 C19         -3.6280     3.6250     0.8420 c3         1 OLM      -0.078400
     10 C15         -3.1580     1.2810    -0.0510 cc         1 OLM       0.347800
     11 N6          -4.0790     0.6850    -0.7770 nd         1 OLM      -0.692000
     12 C16         -4.0820    -0.6520    -0.4110 cd         1 OLM       0.157300
     13 C22         -5.0620    -1.6260    -1.1150 c3         1 OLM       0.184700
     14 C23         -4.3170    -2.4250    -2.2110 c3         1 OLM      -0.091100
     15 C24         -6.2760    -0.8930    -1.7500 c3         1 OLM      -0.091100
     16 C17         -3.1070    -0.8760     0.5640 cc         1 OLM      -0.173600
     17 C21         -2.7590    -2.2000     1.1810 c          1 OLM       0.736600
     18 N1          -2.5430     0.3840     0.7970 na         1 OLM      -0.149500
     19 C7           0.3480    -0.0980     0.1490 ca         1 OLM      -0.091000
     20 C6           1.6290     0.0060    -0.4200 ca         1 OLM      -0.095500
     21 C5           2.5250     1.0240    -0.0180 cp         1 OLM      -0.067000
     22 C8           3.8770     1.1530    -0.6390 cp         1 OLM       0.041000
     23 C9           4.2040     2.3750    -1.2760 ca         1 OLM      -0.109000
     24 C10          5.4320     2.5550    -1.9260 ca         1 OLM      -0.094000
     25 C11          6.3620     1.5100    -1.9480 ca         1 OLM      -0.123000
     26 C12          6.0670     0.2920    -1.3170 ca         1 OLM      -0.097000
     27 C13          4.8290     0.0850    -0.6600 ca         1 OLM      -0.140500
     28 C14          4.6390    -1.1900     0.0540 cc         1 OLM       0.452000
     29 N5           5.2400    -2.3750    -0.2640 na         1 OLM      -0.215700
     30 N4           4.8900    -3.3420     0.6200 nc         1 OLM      -0.208800
     31 N3           4.0980    -2.7380     1.4630 nd         1 OLM      -0.040000
     32 N2           3.9360    -1.4100     1.1470 nd         1 OLM      -0.360000
     33 H1           2.7520     2.7470     1.2810 ha         1 OLM       0.104500
     34 H2           0.5010     2.5700     2.2830 ha         1 OLM       0.137000
     35 H3          -4.8300    -2.9490     0.2730 ho         1 OLM       0.437000
     36 H5          -1.4500     0.0280     2.5850 h1         1 OLM       0.082200
     37 H6          -1.7160     1.7090     2.1990 h1         1 OLM       0.082200
     38 H7          -3.4730     5.5120    -0.2480 hc         1 OLM       0.023700
     39 H8          -3.8590     5.6980     1.4770 hc         1 OLM       0.023700
     40 H9          -2.2060     5.2770     0.9800 hc         1 OLM       0.023700
     41 H10         -3.4470     3.2740     1.8650 hc         1 OLM       0.045200
     42 H11         -4.7010     3.5030     0.6500 hc         1 OLM       0.045200
     43 H12         -3.0420     3.0990    -1.1740 hc         1 OLM       0.045200
     44 H13         -1.7580     2.9110    -0.0010 hc         1 OLM       0.045200
     45 H14         -3.9250    -1.7470    -2.9790 hc         1 OLM       0.034200
     46 H15         -3.4690    -2.9810    -1.7940 hc         1 OLM       0.034200
     47 H16         -4.9860    -3.1420    -2.7010 hc         1 OLM       0.034200
     48 H17         -6.8140    -0.3040    -0.9970 hc         1 OLM       0.034200
     49 H18         -5.9560    -0.2160    -2.5510 hc         1 OLM       0.034200
     50 H19         -6.9830    -1.6090    -2.1860 hc         1 OLM       0.034200
     51 H20         -0.3130    -0.8980    -0.1770 ha         1 OLM       0.137000
     52 H21          1.9320    -0.7090    -1.1810 ha         1 OLM       0.104500
     53 H22          3.4820     3.1880    -1.2750 ha         1 OLM       0.126000
     54 H23          5.6600     3.5010    -2.4120 ha         1 OLM       0.112000
     55 H24          7.3200     1.6460    -2.4450 ha         1 OLM       0.111000
     56 H25          6.8250    -0.4880    -1.3260 ha         1 OLM       0.109000
     57 H26          5.8560    -2.5510    -1.0470 hn         1 OLM       0.382000
     58 C18         -2.8320     2.7530    -0.1540 c3         1 OLM      -0.090700
@<TRIPOS>BOND
     1     1     2 ar  
     2     1    21 ar  
     3     1    33 1   
     4     2     4 ar  
     5     2    34 1   
     6     3    13 1   
     7     3    35 1   
     8     4     6 1   
     9     4    19 ar  
    10     5    17 1   
    11     6    18 1   
    12     6    36 1   
    13     6    37 1   
    14     7    17 1   
    15     8     9 1   
    16     8    38 1   
    17     8    39 1   
    18     8    40 1   
    19     9    41 1   
    20     9    42 1   
    21     9    58 1   
    22    10    11 2   
    23    10    18 1   
    24    10    58 1   
    25    11    12 1   
    26    12    13 1   
    27    12    16 2   
    28    13    14 1   
    29    13    15 1   
    30    14    45 1   
    31    14    46 1   
    32    14    47 1   
    33    15    48 1   
    34    15    49 1   
    35    15    50 1   
    36    16    17 1   
    37    16    18 1   
    38    19    20 ar  
    39    19    51 1   
    40    20    21 ar  
    41    20    52 1   
    42    21    22 1   
    43    22    23 ar  
    44    22    27 ar  
    45    23    24 ar  
    46    23    53 1   
    47    24    25 ar  
    48    24    54 1   
    49    25    26 ar  
    50    25    55 1   
    51    26    27 ar  
    52    26    56 1   
    53    27    28 1   
    54    28    29 1   
    55    28    32 2   
    56    29    30 1   
    57    29    57 1   
    58    30    31 2   
    59    31    32 1   
    60    43    58 1   
    61    44    58 1   
@<TRIPOS>SUBSTRUCTURE
     1 OLM         1 TEMP              0 ****  ****    0 ROOT
