@<TRIPOS>MOLECULE
OLM
   58    61     1     0     0
SMALL
bcc


@<TRIPOS>ATOM
      1 C4           1.9300     1.9620     0.7330 ca         1 OLM      -0.113500
      2 C3           0.6860     1.8530     1.3400 ca         1 OLM      -0.109000
      3 O3          -5.2550    -2.5630    -0.3960 oh         1 OLM      -0.585800
      4 C2          -0.1120     0.7340     1.1350 ca         1 OLM      -0.077300
      5 O2          -2.8920    -2.1050     2.4630 o          1 OLM      -0.807300
      6 C1          -1.4660     0.6330     1.7920 c3         1 OLM       0.080600
      7 O1          -2.1980    -3.0340     0.5570 o          1 OLM      -0.807300
      8 C20         -3.1970     5.0080     1.1200 c3         1 OLM      -0.088100
      9 C19         -3.5180     3.5210     1.1230 c3         1 OLM      -0.078400
     10 C15         -3.0520     1.3080    -0.0100 cc         1 OLM       0.347800
     11 N6          -3.8940     0.7470    -0.8410 nd         1 OLM      -0.692000
     12 C16         -3.9010    -0.5880    -0.5460 cd         1 OLM       0.222600
     13 C22         -4.7730    -1.5690    -1.2900 c3         1 OLM       0.161500
     14 C23         -3.9500    -2.3100    -2.3410 c3         1 OLM      -0.091100
     15 C24         -5.9490    -0.8550    -1.9540 c3         1 OLM      -0.091100
     16 C17         -3.0480    -0.8430     0.4960 cc         1 OLM      -0.188200
     17 C21         -2.6860    -2.1120     1.2330 c          1 OLM       0.947200
     18 N1          -2.5290     0.3860     0.8390 na         1 OLM      -0.170900
     19 C7           0.3650    -0.2830     0.3100 ca         1 OLM      -0.109000
     20 C6           1.6050    -0.1770    -0.2940 ca         1 OLM      -0.113500
     21 C5           2.4060     0.9470    -0.0900 cp         1 OLM      -0.067000
     22 C8           3.7060     1.0880    -0.7790 cp         1 OLM       0.041000
     23 C9           3.9320     2.2010    -1.5860 ca         1 OLM      -0.127000
     24 C10          5.1100     2.3440    -2.3040 ca         1 OLM      -0.112000
     25 C11          6.0910     1.3650    -2.2300 ca         1 OLM      -0.141000
     26 C12          5.8920     0.2590    -1.4200 ca         1 OLM      -0.115000
     27 C13          4.7140     0.1180    -0.6900 ca         1 OLM      -0.140500
     28 C14          4.5820    -1.0280     0.2100 cc         1 OLM       0.452000
     29 N5           4.8190    -2.2990    -0.1240 na         1 OLM      -0.165400
     30 N4           4.6430    -3.0660     0.9360 nc         1 OLM      -0.208800
     31 N3           4.3100    -2.2860     1.8890 nd         1 OLM      -0.040000
     32 N2           4.2620    -1.0190     1.4840 nd         1 OLM      -0.360000
     33 H1           2.5340     2.8430     0.9070 ha         1 OLM       0.122500
     34 H2           0.3360     2.6560     1.9780 ha         1 OLM       0.155000
     35 H3          -5.7410    -2.1160     0.3060 ho         1 OLM       0.398000
     36 H5          -1.4820    -0.1720     2.5250 h1         1 OLM       0.082200
     37 H6          -1.6850     1.5500     2.3380 h1         1 OLM       0.082200
     38 H7          -3.4390     5.4640     0.1590 hc         1 OLM       0.023700
     39 H8          -3.7610     5.5360     1.8890 hc         1 OLM       0.023700
     40 H9          -2.1370     5.1820     1.3110 hc         1 OLM       0.023700
     41 H10         -3.2940     3.1050     2.1100 hc         1 OLM       0.045200
     42 H11         -4.5880     3.3680     0.9640 hc         1 OLM       0.045200
     43 H12         -2.9900     3.1850    -0.9340 hc         1 OLM       0.045200
     44 H13         -1.6680     2.9260     0.1790 hc         1 OLM       0.045200
     45 H14         -3.5340    -1.6050    -3.0600 hc         1 OLM       0.034200
     46 H15         -3.1260    -2.8420    -1.8670 hc         1 OLM       0.034200
     47 H16         -4.5660    -3.0250    -2.8920 hc         1 OLM       0.034200
     48 H17         -6.5660    -0.3330    -1.2190 hc         1 OLM       0.034200
     49 H18         -5.6150    -0.1170    -2.6820 hc         1 OLM       0.034200
     50 H19         -6.5780    -1.5810    -2.4730 hc         1 OLM       0.034200
     51 H20         -0.2390    -1.1650     0.1260 ha         1 OLM       0.155000
     52 H21          1.9440    -0.9720    -0.9480 ha         1 OLM       0.122500
     53 H22          3.1580     2.9540    -1.6730 ha         1 OLM       0.144000
     54 H23          5.2550     3.2150    -2.9290 ha         1 OLM       0.130000
     55 H24          7.0110     1.4660    -2.7890 ha         1 OLM       0.129000
     56 H25          6.6710    -0.4880    -1.3340 ha         1 OLM       0.127000
     57 H26          5.0720    -2.6980    -1.0180 hn         1 OLM       0.331700
     58 C18         -2.7410     2.7650     0.0420 c3         1 OLM      -0.090700
@<TRIPOS>BOND
     1     1     2 ar  
     2     1    21 ar  
     3     1    33 1   
     4     2     4 ar  
     5     2    34 1   
     6     3    13 1   
     7     3    35 1   
     8     4     6 1   
     9     4    19 ar  
    10     5    17 1   
    11     6    18 1   
    12     6    36 1   
    13     6    37 1   
    14     7    17 1   
    15     8     9 1   
    16     8    38 1   
    17     8    39 1   
    18     8    40 1   
    19     9    41 1   
    20     9    42 1   
    21     9    58 1   
    22    10    11 2   
    23    10    18 1   
    24    10    58 1   
    25    11    12 1   
    26    12    13 1   
    27    12    16 2   
    28    13    14 1   
    29    13    15 1   
    30    14    45 1   
    31    14    46 1   
    32    14    47 1   
    33    15    48 1   
    34    15    49 1   
    35    15    50 1   
    36    16    17 1   
    37    16    18 1   
    38    19    20 ar  
    39    19    51 1   
    40    20    21 ar  
    41    20    52 1   
    42    21    22 1   
    43    22    23 ar  
    44    22    27 ar  
    45    23    24 ar  
    46    23    53 1   
    47    24    25 ar  
    48    24    54 1   
    49    25    26 ar  
    50    25    55 1   
    51    26    27 ar  
    52    26    56 1   
    53    27    28 1   
    54    28    29 1   
    55    28    32 2   
    56    29    30 1   
    57    29    57 1   
    58    30    31 2   
    59    31    32 1   
    60    43    58 1   
    61    44    58 1   
@<TRIPOS>SUBSTRUCTURE
     1 OLM         1 TEMP              0 ****  ****    0 ROOT
