@<TRIPOS>MOLECULE
OLN
   29    28     1     0     0
SMALL
No Charge or Current Charge


@<TRIPOS>ATOM
      1 CA          -0.6600    -0.2590    -1.7450 c3         1 OLN      -0.042300
      2 C           -1.7860     0.0420    -2.7830 c          1 OLN       0.717000
      3 O           -2.3600    -0.9050    -3.3020 o          1 OLN      -0.721500
      4 OXT         -1.9960     1.2070    -3.0970 o          1 OLN      -0.721500
      5 CB          -1.0770     0.1810    -0.3160 c3         1 OLN      -0.071400
      6 CG          -0.0890    -0.2370     0.7980 c3         1 OLN      -0.094400
      7 CD          -0.5770     0.1520     2.2060 c3         1 OLN       0.101000
      8 NE           0.3760    -0.2550     3.2380 ns         1 OLN      -0.511900
      9 CZ           0.2130    -0.0070     4.5700 c          1 OLN       0.628100
     10 O2          -0.7390     0.5770     5.0500 o          1 OLN      -0.646100
     11 NH2          1.2170    -0.4750     5.3250 nt         1 OLN      -0.602000
     12 N1           0.6160     0.3680    -2.1730 ns         1 OLN      -0.462900
     13 C1           1.8630    -0.2130    -2.0900 c          1 OLN       0.603100
     14 O1           2.0450    -1.3460    -1.6650 o          1 OLN      -0.625100
     15 C2           3.0070     0.6690    -2.5800 c3         1 OLN      -0.178100
     16 HA          -0.5260    -1.3480    -1.7400 h1         1 OLN       0.061700
     17 HB1         -1.2050     1.2700    -0.2960 hc         1 OLN       0.051200
     18 HB2         -2.0600    -0.2540    -0.0940 hc         1 OLN       0.051200
     19 HG1          0.0630    -1.3230     0.7570 hc         1 OLN       0.036700
     20 HG2          0.8850     0.2340     0.6200 hc         1 OLN       0.036700
     21 HD1         -0.7140     1.2400     2.2600 h1         1 OLN       0.049200
     22 HD2         -1.5430    -0.3290     2.4080 h1         1 OLN       0.049200
     23 HNE          1.2110    -0.7510     2.9580 hn         1 OLN       0.298500
     24 HH21         1.1840    -0.3380     6.3240 hn         1 OLN       0.292500
     25 HH22         1.9940    -0.9560     4.9000 hn         1 OLN       0.292500
     26 HN1          0.5780     1.3030    -2.5610 hn         1 OLN       0.286500
     27 H21          3.9840     0.1790    -2.5070 hc         1 OLN       0.041033
     28 H22          2.7940     0.9950    -3.6050 hc         1 OLN       0.041033
     29 H23          2.9890     1.6170    -2.0290 hc         1 OLN       0.041033
@<TRIPOS>BOND
     1     1     2 1   
     2     1     5 1   
     3     1    12 1   
     4     1    16 1   
     5     2     3 1   
     6     2     4 1   
     7     5     6 1   
     8     5    17 1   
     9     5    18 1   
    10     6     7 1   
    11     6    19 1   
    12     6    20 1   
    13     7     8 1   
    14     7    21 1   
    15     7    22 1   
    16     8     9 1   
    17     8    23 1   
    18     9    10 2   
    19     9    11 1   
    20    11    24 1   
    21    11    25 1   
    22    12    13 1   
    23    12    26 1   
    24    13    14 2   
    25    13    15 1   
    26    15    27 1   
    27    15    28 1   
    28    15    29 1   
@<TRIPOS>SUBSTRUCTURE
     1 OLN         1 TEMP              0 ****  ****    0 ROOT
