@<TRIPOS>MOLECULE
OLN
   29    28     1     0     0
SMALL
bcc


@<TRIPOS>ATOM
      1 CA          -0.3950    -0.3570    -1.5600 c3         1 OLN      -0.042300
      2 C           -1.4680    -0.0970    -2.6530 c          1 OLN       0.927600
      3 O           -2.5120    -0.7690    -2.5290 o          1 OLN      -0.826800
      4 OXT         -1.2140     0.7480    -3.5260 o          1 OLN      -0.826800
      5 CB          -0.9040     0.0910    -0.1920 c3         1 OLN      -0.071400
      6 CG           0.0080    -0.2970     0.9650 c3         1 OLN      -0.094400
      7 CD          -0.5350     0.2060     2.2930 c3         1 OLN       0.101000
      8 NE           0.3320    -0.1840     3.3830 ns         1 OLN      -0.578900
      9 CZ          -0.0610    -0.0940     4.6790 c          1 OLN       0.762100
     10 O2          -1.2100     0.1840     5.0050 o          1 OLN      -0.646100
     11 NH2          0.9260    -0.3140     5.5970 nt         1 OLN      -0.669000
     12 N1           0.8620     0.2940    -1.8440 ns         1 OLN      -0.529900
     13 C1           1.6810    -0.1080    -2.8260 c          1 OLN       0.670100
     14 O1           1.5320    -1.1650    -3.4290 o          1 OLN      -0.625100
     15 C2           2.8250     0.8260    -3.1380 c3         1 OLN      -0.178100
     16 HA          -0.2170    -1.4360    -1.5220 h1         1 OLN       0.061700
     17 HB1         -1.0520     1.1780    -0.1990 hc         1 OLN       0.051200
     18 HB2         -1.8910    -0.3500    -0.0370 hc         1 OLN       0.051200
     19 HG1          0.1070    -1.3860     1.0020 hc         1 OLN       0.036700
     20 HG2          1.0140     0.1040     0.8050 hc         1 OLN       0.036700
     21 HD1         -0.6540     1.2950     2.2500 h1         1 OLN       0.049200
     22 HD2         -1.5280    -0.2120     2.4640 h1         1 OLN       0.049200
     23 HNE          1.3210    -0.2090     3.1860 hn         1 OLN       0.298500
     24 HH21         0.6210    -0.4890     6.5400 hn         1 OLN       0.292500
     25 HH22         1.7530    -0.8220     5.3280 hn         1 OLN       0.292500
     26 HN1          0.9830     1.2310    -1.4920 hn         1 OLN       0.286500
     27 H21          3.7580     0.2660    -3.1870 hc         1 OLN       0.041033
     28 H22          2.6630     1.2740    -4.1190 hc         1 OLN       0.041033
     29 H23          2.9400     1.6300    -2.4140 hc         1 OLN       0.041033
@<TRIPOS>BOND
     1     1     2 1   
     2     1     5 1   
     3     1    12 1   
     4     1    16 1   
     5     2     3 1   
     6     2     4 1   
     7     5     6 1   
     8     5    17 1   
     9     5    18 1   
    10     6     7 1   
    11     6    19 1   
    12     6    20 1   
    13     7     8 1   
    14     7    21 1   
    15     7    22 1   
    16     8     9 1   
    17     8    23 1   
    18     9    10 2   
    19     9    11 1   
    20    11    24 1   
    21    11    25 1   
    22    12    13 1   
    23    12    26 1   
    24    13    14 2   
    25    13    15 1   
    26    15    27 1   
    27    15    28 1   
    28    15    29 1   
@<TRIPOS>SUBSTRUCTURE
     1 OLN         1 TEMP              0 ****  ****    0 ROOT
