@<TRIPOS>MOLECULE
OLO
   40    42     1     0     0
SMALL
No Charge or Current Charge


@<TRIPOS>ATOM
      1 N            2.9750     0.1780     2.0980 na         1 OLO      -0.287300
      2 C            3.6690    -0.7860     1.3640 cc         1 OLO       0.389700
      3 N1           2.8400    -1.4250     0.5150 nd         1 OLO      -0.544100
      4 C3A          1.5980    -0.8160     0.7530 ca         1 OLO      -0.142600
      5 C7A          1.6660     0.1610     1.7130 ca         1 OLO       0.165500
      6 C1           0.3490    -1.0680     0.1540 ca         1 OLO       0.478900
      7 N2          -0.7430    -0.3730     0.5170 nb         1 OLO      -0.351000
      8 C2          -0.5600     0.5610     1.4710 ca         1 OLO       0.430900
      9 N3           0.5920     0.8740     2.0960 nb         1 OLO      -0.289000
     10 C3           3.4920     1.0940     3.1250 c3         1 OLO       0.075900
     11 N4          -1.6590     1.3030     1.8620 nu         1 OLO      -0.906100
     12 C4          -3.0830     1.0120     1.5650 c3         1 OLO       0.235800
     13 C5          -3.6310    -0.1990     2.3770 c3         1 OLO       0.124600
     14 O           -3.6050     0.0570     3.7970 oh         1 OLO      -0.666000
     15 N5           0.2180    -2.0390    -0.8270 nu         1 OLO      -0.913100
     16 C6          -0.8120    -2.0880    -1.8750 c3         1 OLO       0.278100
     17 C7           0.3440    -0.9550    -3.8400 ca         1 OLO      -0.088500
     18 C8           0.4930     0.1210    -4.7330 ca         1 OLO      -0.114500
     19 C9          -0.3520     1.2390    -4.6350 ca         1 OLO      -0.102000
     20 C10         -1.3470     1.2800    -3.6440 ca         1 OLO      -0.114500
     21 C11         -1.4970     0.2040    -2.7520 ca         1 OLO      -0.088500
     22 C12         -0.6520    -0.9200    -2.8430 ca         1 OLO      -0.117300
     23 H            4.7300    -0.9650     1.4890 h5         1 OLO       0.061800
     24 H31          3.3280     2.1330     2.8110 h1         1 OLO       0.052367
     25 H32          2.9710     0.9170     4.0740 h1         1 OLO       0.052367
     26 H33          4.5670     0.9270     3.2680 h1         1 OLO       0.052367
     27 HN4         -1.4840     1.8990     2.6710 hn         1 OLO       0.504000
     28 H41         -3.6990     1.8900     1.8060 h1         1 OLO       0.062200
     29 H42         -3.2150     0.8150     0.4920 h1         1 OLO       0.062200
     30 H51         -4.6600    -0.3980     2.0510 h1         1 OLO       0.030700
     31 H52         -3.0340    -1.0900     2.1390 h1         1 OLO       0.030700
     32 HO          -3.9090    -0.7650     4.2430 ho         1 OLO       0.444000
     33 HN5          1.1120    -2.4760    -1.0470 hn         1 OLO       0.510000
     34 H61         -0.7280    -3.0290    -2.4380 h1         1 OLO       0.060700
     35 H62         -1.8160    -2.0690    -1.4280 h1         1 OLO       0.060700
     36 H8           1.2650     0.0880    -5.4990 ha         1 OLO       0.112000
     37 H9          -0.2360     2.0720    -5.3250 ha         1 OLO       0.112000
     38 H10         -2.0010     2.1460    -3.5660 ha         1 OLO       0.112000
     39 H11         -2.2690     0.2470    -1.9860 ha         1 OLO       0.112000
     40 H7           1.0040    -1.8160    -3.9220 ha         1 OLO       0.112000
@<TRIPOS>BOND
     1     1     2 1   
     2     1     5 1   
     3     1    10 1   
     4     2     3 2   
     5     2    23 1   
     6     3     4 1   
     7     4     5 ar  
     8     4     6 ar  
     9     5     9 ar  
    10     6     7 ar  
    11     6    15 1   
    12     7     8 ar  
    13     8     9 ar  
    14     8    11 1   
    15    10    24 1   
    16    10    25 1   
    17    10    26 1   
    18    11    12 1   
    19    11    27 1   
    20    12    13 1   
    21    12    28 1   
    22    12    29 1   
    23    13    14 1   
    24    13    30 1   
    25    13    31 1   
    26    14    32 1   
    27    15    16 1   
    28    15    33 1   
    29    16    22 1   
    30    16    34 1   
    31    16    35 1   
    32    17    18 ar  
    33    17    22 ar  
    34    17    40 1   
    35    18    19 ar  
    36    18    36 1   
    37    19    20 ar  
    38    19    37 1   
    39    20    21 ar  
    40    20    38 1   
    41    21    22 ar  
    42    21    39 1   
@<TRIPOS>SUBSTRUCTURE
     1 OLO         1 TEMP              0 ****  ****    0 ROOT
