@<TRIPOS>MOLECULE
OLO
   40    42     1     0     0
SMALL
bcc


@<TRIPOS>ATOM
      1 N            3.0020     0.1310     2.3570 na         1 OLO      -0.258000
      2 C            3.7080    -0.7790     1.6190 cc         1 OLO       0.389700
      3 N1           3.0060    -1.3500     0.6860 nd         1 OLO      -0.544100
      4 C3A          1.7600    -0.7840     0.8130 ca         1 OLO      -0.273200
      5 C7A          1.7390     0.1380     1.8480 ca         1 OLO       0.493800
      6 C1           0.5440    -0.9530     0.1240 ca         1 OLO       0.807200
      7 N2          -0.5060    -0.2310     0.4960 nb         1 OLO      -0.877000
      8 C2          -0.3890     0.6260     1.5230 ca         1 OLO       0.956900
      9 N3           0.7040     0.8660     2.2520 nb         1 OLO      -0.815000
     10 C3           3.4810     0.9170     3.4690 c3         1 OLO       0.046600
     11 N4          -1.4920     1.3470     1.8410 nu         1 OLO      -0.850900
     12 C4          -2.8130     1.0420     1.3510 c3         1 OLO       0.235800
     13 C5          -3.4460    -0.1840     1.9840 c3         1 OLO       0.101400
     14 O           -3.5740     0.0370     3.3710 oh         1 OLO      -0.603800
     15 N5           0.4160    -1.8420    -0.8730 nu         1 OLO      -0.857900
     16 C6          -0.7540    -1.9340    -1.7180 c3         1 OLO       0.278100
     17 C7           0.0740    -0.9380    -3.8730 ca         1 OLO      -0.106500
     18 C8           0.0660     0.0460    -4.8510 ca         1 OLO      -0.132500
     19 C9          -0.8140     1.1170    -4.7540 ca         1 OLO      -0.120000
     20 C10         -1.6840     1.1950    -3.6750 ca         1 OLO      -0.132500
     21 C11         -1.6710     0.2080    -2.6970 ca         1 OLO      -0.106500
     22 C12         -0.7940    -0.8680    -2.7860 ca         1 OLO      -0.117300
     23 H            4.7510    -0.9730     1.8260 h5         1 OLO       0.061800
     24 H31          3.2750     1.9720     3.3060 h1         1 OLO       0.052367
     25 H32          3.0070     0.6040     4.3970 h1         1 OLO       0.052367
     26 H33          4.5550     0.7810     3.5610 h1         1 OLO       0.052367
     27 HN4         -1.4300     1.8610     2.7050 hn         1 OLO       0.448800
     28 H41         -3.4420     1.9160     1.5310 h1         1 OLO       0.062200
     29 H42         -2.7750     0.8940     0.2730 h1         1 OLO       0.062200
     30 H51         -4.4200    -0.3550     1.5050 h1         1 OLO       0.030700
     31 H52         -2.8230    -1.0610     1.7690 h1         1 OLO       0.030700
     32 HO          -3.8690    -0.7810     3.7800 ho         1 OLO       0.405000
     33 HN5          1.2540    -2.3080    -1.1810 hn         1 OLO       0.454800
     34 H61         -0.7390    -2.9230    -2.1770 h1         1 OLO       0.060700
     35 H62         -1.6470    -1.8830    -1.0950 h1         1 OLO       0.060700
     36 H8           0.7440    -0.0240    -5.6930 ha         1 OLO       0.130000
     37 H9          -0.8230     1.8850    -5.5160 ha         1 OLO       0.130000
     38 H10         -2.3730     2.0260    -3.5920 ha         1 OLO       0.130000
     39 H11         -2.3470     0.2760    -1.8540 ha         1 OLO       0.130000
     40 H7           0.7600    -1.7730    -3.9610 ha         1 OLO       0.130000
@<TRIPOS>BOND
     1     1     2 1   
     2     1     5 1   
     3     1    10 1   
     4     2     3 2   
     5     2    23 1   
     6     3     4 1   
     7     4     5 ar  
     8     4     6 ar  
     9     5     9 ar  
    10     6     7 ar  
    11     6    15 1   
    12     7     8 ar  
    13     8     9 ar  
    14     8    11 1   
    15    10    24 1   
    16    10    25 1   
    17    10    26 1   
    18    11    12 1   
    19    11    27 1   
    20    12    13 1   
    21    12    28 1   
    22    12    29 1   
    23    13    14 1   
    24    13    30 1   
    25    13    31 1   
    26    14    32 1   
    27    15    16 1   
    28    15    33 1   
    29    16    22 1   
    30    16    34 1   
    31    16    35 1   
    32    17    18 ar  
    33    17    22 ar  
    34    17    40 1   
    35    18    19 ar  
    36    18    36 1   
    37    19    20 ar  
    38    19    37 1   
    39    20    21 ar  
    40    20    38 1   
    41    21    22 ar  
    42    21    39 1   
@<TRIPOS>SUBSTRUCTURE
     1 OLO         1 TEMP              0 ****  ****    0 ROOT
