@<TRIPOS>MOLECULE
OLP
   43    45     1     0     0
SMALL
No Charge or Current Charge


@<TRIPOS>ATOM
      1 CAH         -2.6720     1.9910    -1.0120 ca         1 OLP      -0.126000
      2 CAQ         -4.0730     1.9510    -0.9330 ca         1 OLP       0.129000
      3 Cl          -5.0310     1.8410    -2.4040 cl         1 OLP      -0.238000
      4 CAF         -4.7130     2.0000     0.3170 ca         1 OLP      -0.129000
      5 CAE         -3.9480     2.0890     1.4930 ca         1 OLP      -0.099000
      6 CAG         -2.5450     2.1280     1.4130 ca         1 OLP      -0.113000
      7 CAR         -1.9030     2.0740     0.1620 ca         1 OLP       0.196400
      8 N6          -0.4990     2.1180     0.0850 ne         1 OLP      -0.613100
      9 C6           0.2980     1.0750     0.0770 cd         1 OLP       0.682300
     10 N1          -0.2640    -0.1880     0.1320 nd         1 OLP      -0.859000
     11 C5           1.7170     1.2760     0.0140 cd         1 OLP       0.142700
     12 N7           2.5380     2.4020    -0.0590 nd         1 OLP      -0.585000
     13 C8           3.7800     1.9010    -0.1300 cc         1 OLP       0.387400
     14 N9           3.7870     0.5070    -0.1100 na         1 OLP      -0.191500
     15 CAW          4.9590    -0.3850    -0.1970 c3         1 OLP       0.096300
     16 CAB          5.6280    -0.3020    -1.5840 c3         1 OLP      -0.108600
     17 CAA          5.9630    -0.1220     0.9440 c3         1 OLP      -0.108600
     18 C4           2.4720     0.1770     0.0110 cc         1 OLP       0.190000
     19 N3           1.9370    -1.0940    -0.0050 na         1 OLP      -0.927200
     20 C2           0.5830    -1.1930     0.1090 cc         1 OLP       0.900100
     21 N2           0.1190    -2.4350     0.1540 nu         1 OLP      -0.905400
     22 CAK         -1.2790    -2.8210     0.4360 c3         1 OLP       0.234800
     23 CAJ         -1.4350    -4.3660     0.4990 c3         1 OLP       0.139600
     24 OAC         -0.4700    -4.9560     1.3950 oh         1 OLP      -0.675000
     25 HAH         -2.1830     1.9530    -1.9800 ha         1 OLP       0.130000
     26 HAF         -5.7980     1.9700     0.3730 ha         1 OLP       0.123000
     27 HAE         -4.4410     2.1290     2.4630 ha         1 OLP       0.111000
     28 HAG         -1.9520     2.1970     2.3220 ha         1 OLP       0.125000
     29 H8           4.6930     2.4790    -0.2070 h5         1 OLP       0.060100
     30 HAW          4.6020    -1.4150    -0.0740 h1         1 OLP       0.048700
     31 HAB1         6.4530    -1.0210    -1.6580 hc         1 OLP       0.052200
     32 HAB2         4.9050    -0.5350    -2.3750 hc         1 OLP       0.052200
     33 HAB3         6.0290     0.7020    -1.7690 hc         1 OLP       0.052200
     34 HAA1         5.4700    -0.2190     1.9200 hc         1 OLP       0.052200
     35 HAA2         6.7860    -0.8460     0.9080 hc         1 OLP       0.052200
     36 HAA3         6.3900     0.8860     0.8720 hc         1 OLP       0.052200
     37 H3           2.5010    -1.9240    -0.0960 hn         1 OLP       0.502000
     38 H2           0.8180    -3.0990     0.4600 hn         1 OLP       0.498000
     39 HAK1        -1.6040    -2.3940     1.3950 h1         1 OLP       0.073700
     40 HAK2        -1.9490    -2.4290    -0.3420 h1         1 OLP       0.073700
     41 HAJ1        -2.4570    -4.6040     0.8210 h1         1 OLP       0.036200
     42 HAJ2        -1.3050    -4.7720    -0.5130 h1         1 OLP       0.036200
     43 HAC         -0.6400    -5.9260     1.4040 ho         1 OLP       0.449000
@<TRIPOS>BOND
     1     1     2 ar  
     2     1     7 ar  
     3     1    25 1   
     4     2     3 1   
     5     2     4 ar  
     6     4     5 ar  
     7     4    26 1   
     8     5     6 ar  
     9     5    27 1   
    10     6     7 ar  
    11     6    28 1   
    12     7     8 1   
    13     8     9 2   
    14     9    10 1   
    15     9    11 1   
    16    10    20 2   
    17    11    12 1   
    18    11    18 2   
    19    12    13 2   
    20    13    14 1   
    21    13    29 1   
    22    14    15 1   
    23    14    18 1   
    24    15    16 1   
    25    15    17 1   
    26    15    30 1   
    27    16    31 1   
    28    16    32 1   
    29    16    33 1   
    30    17    34 1   
    31    17    35 1   
    32    17    36 1   
    33    18    19 1   
    34    19    20 1   
    35    19    37 1   
    36    20    21 1   
    37    21    22 1   
    38    21    38 1   
    39    22    23 1   
    40    22    39 1   
    41    22    40 1   
    42    23    24 1   
    43    23    41 1   
    44    23    42 1   
    45    24    43 1   
@<TRIPOS>SUBSTRUCTURE
     1 OLP         1 TEMP              0 ****  ****    0 ROOT
