@<TRIPOS>MOLECULE
OLP
   43    45     1     0     0
SMALL
abcg2


@<TRIPOS>ATOM
      1 CAH         -2.5950     1.1250    -0.5060 ca         1 OLP      -0.126000
      2 CAQ         -3.9750     1.1440    -0.4220 ca         1 OLP       0.129000
      3 CL          -4.8850     0.0510    -1.4280 cl         1 OLP      -0.238000
      4 CAF         -4.6580     1.9940     0.4330 ca         1 OLP      -0.129000
      5 CAE         -3.9060     2.8610     1.2160 ca         1 OLP      -0.099000
      6 CAG         -2.5220     2.8670     1.1450 ca         1 OLP      -0.113000
      7 CAR         -1.8340     1.9910     0.2950 ca         1 OLP       0.196400
      8 N6          -0.4580     2.0920     0.2330 ne         1 OLP      -0.613100
      9 C6           0.3070     1.0500     0.1850 cd         1 OLP       0.682300
     10 N1          -0.1460    -0.2370     0.3070 nd         1 OLP      -0.859000
     11 C5           1.7330     1.1970     0.0380 cd         1 OLP       0.142700
     12 N7           2.5290     2.3040    -0.0810 nd         1 OLP      -0.585000
     13 C8           3.7380     1.8400    -0.2000 cc         1 OLP       0.387400
     14 N9           3.7910     0.4690    -0.1690 na         1 OLP      -0.191500
     15 CAW          4.9940    -0.3630    -0.2460 c3         1 OLP       0.096300
     16 CAB          5.7670    -0.0680    -1.5220 c3         1 OLP      -0.108600
     17 CAA          5.8390    -0.1920     1.0070 c3         1 OLP      -0.108600
     18 C4           2.5100     0.0700    -0.0130 cc         1 OLP       0.190000
     19 N3           1.9990    -1.1860     0.0800 na         1 OLP      -0.927200
     20 C2           0.6400    -1.2730     0.2390 cc         1 OLP       0.900100
     21 N2           0.1360    -2.5130     0.3080 nu         1 OLP      -0.905400
     22 CAK         -1.2680    -2.7710     0.5400 c3         1 OLP       0.234800
     23 CAJ         -1.6290    -4.1650     0.0810 c3         1 OLP       0.139600
     24 OAC         -0.8630    -5.0950     0.8170 oh         1 OLP      -0.675000
     25 HAH         -2.1070     0.4490    -1.1920 ha         1 OLP       0.130000
     26 HAF         -5.7380     1.9870     0.4850 ha         1 OLP       0.123000
     27 HAE         -4.4120     3.5410     1.8880 ha         1 OLP       0.111000
     28 HAG         -1.9500     3.5570     1.7530 ha         1 OLP       0.125000
     29 H8           4.6300     2.4370    -0.3150 h5         1 OLP       0.060100
     30 HAW          4.6460    -1.3970    -0.2910 h1         1 OLP       0.048700
     31 HAB1         6.6010    -0.7640    -1.6090 hc         1 OLP       0.052200
     32 HAB2         5.1360    -0.1810    -2.4030 hc         1 OLP       0.052200
     33 HAB3         6.1790     0.9420    -1.5180 hc         1 OLP       0.052200
     34 HAA1         5.2610    -0.4000     1.9060 hc         1 OLP       0.052200
     35 HAA2         6.6830    -0.8810     0.9800 hc         1 OLP       0.052200
     36 HAA3         6.2380     0.8210     1.0790 hc         1 OLP       0.052200
     37 H3           2.5650    -2.0130    -0.0400 hn         1 OLP       0.502000
     38 H2           0.7700    -3.2840     0.4500 hn         1 OLP       0.498000
     39 HAK1        -1.5230    -2.6420     1.5980 h1         1 OLP       0.073700
     40 HAK2        -1.8610    -2.0510    -0.0210 h1         1 OLP       0.073700
     41 HAJ1        -2.7050    -4.3060     0.2370 h1         1 OLP       0.036200
     42 HAJ2        -1.4410    -4.2510    -0.9950 h1         1 OLP       0.036200
     43 HAC         -0.9500    -5.9580     0.4030 ho         1 OLP       0.449000
@<TRIPOS>BOND
     1     1     2 ar  
     2     1     7 ar  
     3     1    25 1   
     4     2     3 1   
     5     2     4 ar  
     6     4     5 ar  
     7     4    26 1   
     8     5     6 ar  
     9     5    27 1   
    10     6     7 ar  
    11     6    28 1   
    12     7     8 1   
    13     8     9 2   
    14     9    10 1   
    15     9    11 1   
    16    10    20 2   
    17    11    12 1   
    18    11    18 2   
    19    12    13 2   
    20    13    14 1   
    21    13    29 1   
    22    14    15 1   
    23    14    18 1   
    24    15    16 1   
    25    15    17 1   
    26    15    30 1   
    27    16    31 1   
    28    16    32 1   
    29    16    33 1   
    30    17    34 1   
    31    17    35 1   
    32    17    36 1   
    33    18    19 1   
    34    19    20 1   
    35    19    37 1   
    36    20    21 1   
    37    21    22 1   
    38    21    38 1   
    39    22    23 1   
    40    22    39 1   
    41    22    40 1   
    42    23    24 1   
    43    23    41 1   
    44    23    42 1   
    45    24    43 1   
@<TRIPOS>SUBSTRUCTURE
     1 OLP         1 TEMP              0 ****  ****    0 ROOT
