@<TRIPOS>MOLECULE
OLQ
   20    20     1     0     0
SMALL
abcg2


@<TRIPOS>ATOM
      1 CAB         17.4360    13.1680    19.7990 ca         1 OLQ       0.187000
      2 CAC         17.2110    14.4910    20.1120 ca         1 OLQ      -0.211600
      3 CAD         18.2550    15.3830    19.9060 ca         1 OLQ       0.198000
      4 CAE         19.4670    14.9800    19.4020 ca         1 OLQ      -0.135000
      5 CAG         15.9220    14.9450    20.7410 c          1 OLQ       0.636700
      6 CAI         18.6530    12.7050    19.2930 ca         1 OLQ       0.085100
      7 CAJ         19.6650    13.6360    19.0990 ca         1 OLQ      -0.140000
      8 CAM         19.9480    10.8870    18.5180 c3         1 OLQ       0.146900
      9 FAF         16.4540    12.2810    19.9980 f          1 OLQ      -0.156000
     10 FAK         18.0470    16.6770    20.1890 f          1 OLQ      -0.161000
     11 NAA         14.8560    14.8850    19.9380 nt         1 OLQ      -0.596000
     12 OAH         15.9010    15.3340    21.8940 o          1 OLQ      -0.574100
     13 OAL         18.7320    11.3910    19.0390 os         1 OLQ      -0.322100
     14 HAE         20.2600    15.6970    19.2390 ha         1 OLQ       0.140000
     15 HAJ         20.6260    13.3330    18.7080 ha         1 OLQ       0.127000
     16 HAO         19.8040     9.8190    18.3830 h1         1 OLQ       0.045700
     17 HAM         20.1920    11.3370    17.5520 h1         1 OLQ       0.045700
     18 HAN         20.7810    11.0490    19.2060 h1         1 OLQ       0.045700
     19 HAP         13.9480    15.1580    20.2810 hn         1 OLQ       0.320500
     20 HAA         14.9240    14.6000    18.9760 hn         1 OLQ       0.320500
@<TRIPOS>BOND
     1     1     2 ar  
     2     1     6 ar  
     3     1     9 1   
     4     2     3 ar  
     5     2     5 1   
     6     3     4 ar  
     7     3    10 1   
     8     4     7 ar  
     9     4    14 1   
    10     5    11 1   
    11     5    12 2   
    12     6     7 ar  
    13     6    13 1   
    14     7    15 1   
    15     8    13 1   
    16     8    16 1   
    17     8    17 1   
    18     8    18 1   
    19    11    19 1   
    20    11    20 1   
@<TRIPOS>SUBSTRUCTURE
     1 OLQ         1 TEMP              0 ****  ****    0 ROOT
