@<TRIPOS>MOLECULE
OLQ
   20    20     1     0     0
SMALL
No Charge or Current Charge


@<TRIPOS>ATOM
      1 CAB         17.3580    13.2880    19.6230 ca         1 OLQ       0.187000
      2 CAC         17.2060    14.6370    20.0480 ca         1 OLQ      -0.211600
      3 CAD         18.3600    15.4590    20.0390 ca         1 OLQ       0.198000
      4 CAE         19.6040    14.9610    19.6230 ca         1 OLQ      -0.135000
      5 CAG         15.8750    15.2020    20.5030 c          1 OLQ       0.636700
      6 CAI         18.6120    12.7830    19.2050 ca         1 OLQ       0.085100
      7 CAJ         19.7390    13.6290    19.2050 ca         1 OLQ      -0.140000
      8 CAM         19.9240    10.8560    18.3670 c3         1 OLQ       0.146900
      9 FAF         16.3100    12.4300    19.6310 f          1 OLQ      -0.156000
     10 FAK         18.3040    16.7590    20.4050 f          1 OLQ      -0.161000
     11 NAA         14.7420    14.5320    20.2060 nt         1 OLQ      -0.596000
     12 OAH         15.7680    16.2290    21.1500 o          1 OLQ      -0.574100
     13 OAL         18.6930    11.4580    18.8070 os         1 OLQ      -0.322100
     14 HAE         20.4700    15.6190    19.6220 ha         1 OLQ       0.140000
     15 HAJ         20.7170    13.2770    18.8890 ha         1 OLQ       0.127000
     16 HAO         19.7590     9.8050    18.1020 h1         1 OLQ       0.045700
     17 HAM         20.3170    11.3720    17.4820 h1         1 OLQ       0.045700
     18 HAN         20.6810    10.8910    19.1610 h1         1 OLQ       0.045700
     19 HAP         13.8560    14.9000    20.5170 hn         1 OLQ       0.320500
     20 HAA         14.7890    13.6680    19.6870 hn         1 OLQ       0.320500
@<TRIPOS>BOND
     1     1     2 ar  
     2     1     6 ar  
     3     1     9 1   
     4     2     3 ar  
     5     2     5 1   
     6     3     4 ar  
     7     3    10 1   
     8     4     7 ar  
     9     4    14 1   
    10     5    11 1   
    11     5    12 2   
    12     6     7 ar  
    13     6    13 1   
    14     7    15 1   
    15     8    13 1   
    16     8    16 1   
    17     8    17 1   
    18     8    18 1   
    19    11    19 1   
    20    11    20 1   
@<TRIPOS>SUBSTRUCTURE
     1 OLQ         1 TEMP              0 ****  ****    0 ROOT
