@<TRIPOS>MOLECULE
OLR
   45    48     1     0     0
SMALL
No Charge or Current Charge


@<TRIPOS>ATOM
      1 N1         160.0900   201.3560   157.8650 ns         1 OLR      -0.507600
      2 N3         158.0320   195.2770   160.0300 nc         1 OLR      -0.471800
      3 C4         160.6840   199.0800   157.0170 ca         1 OLR      -0.131000
      4 C5         160.3070   197.7210   157.0160 ca         1 OLR      -0.075000
      5 C6         159.1570   197.2880   157.7240 ca         1 OLR      -0.093300
      6 C7         158.3840   198.2310   158.4430 ca         1 OLR      -0.031000
      7 C8         158.7670   195.8070   157.7170 c3         1 OLR      -0.035700
      8 C10        157.3530   195.5910   157.1230 c3         1 OLR      -0.079100
      9 C13        157.9490   194.3990   162.2900 ca         1 OLR       0.417500
     10 C15        156.6640   193.9020   164.7270 ca         1 OLR       0.090100
     11 C17        157.7070   193.0690   162.7130 ca         1 OLR      -0.134000
     12 C1         158.7750   199.5770   158.4310 ca         1 OLR      -0.175000
     13 C11        160.0500   194.3750   159.4820 cd         1 OLR      -0.213000
     14 C12        159.8390   193.9740   160.7710 cc         1 OLR      -0.164000
     15 C14        156.9390   195.2000   164.2450 ca         1 OLR       0.331900
     16 C16        157.0610   192.8060   163.9360 ca         1 OLR      -0.156000
     17 C18        155.7060   192.4580   166.4910 c3         1 OLR       0.159600
     18 C19        154.9960   192.6500   167.8550 c3         1 OLR       0.163600
     19 C2         159.2160   202.0980   158.6150 c          1 OLR       0.585600
     20 C3         159.8960   199.9850   157.7340 ca         1 OLR       0.045600
     21 C9         158.9390   195.1560   159.0750 cd         1 OLR       0.243300
     22 N2         158.6080   194.5520   161.0550 na         1 OLR       0.116300
     23 N4         157.5620   195.4480   163.0660 nb         1 OLR      -0.620000
     24 O1         159.2910   203.3030   158.7970 o          1 OLR      -0.495000
     25 O2         156.0240   193.7540   165.9440 os         1 OLR      -0.320100
     26 O3         153.7140   193.2850   167.6960 oh         1 OLR      -0.648000
     27 S1         157.9510   200.9320   159.2660 ss         1 OLR      -0.032600
     28 H1         160.8700   201.8220   157.4150 hn         1 OLR       0.457000
     29 H2         161.5650   199.4130   156.4740 ha         1 OLR       0.122000
     30 H3         160.9120   197.0050   156.4640 ha         1 OLR       0.117000
     31 H4         157.5030   197.9230   159.0020 ha         1 OLR       0.138000
     32 H5         159.4470   195.2830   157.0340 hc         1 OLR       0.059700
     33 H6         157.1240   194.5200   157.0580 hc         1 OLR       0.044367
     34 H7         156.5800   196.0680   157.7370 hc         1 OLR       0.044367
     35 H8         157.2940   196.0130   156.1120 hc         1 OLR       0.044367
     36 H9         158.0170   192.2390   162.0840 ha         1 OLR       0.130000
     37 H10        160.9170   194.1400   158.8740 ha         1 OLR       0.150000
     38 H11        160.4160   193.3760   161.4670 h4         1 OLR       0.154000
     39 H12        156.6480   196.0730   164.8280 h4         1 OLR       0.043100
     40 H13        156.8840   191.7780   164.2410 ha         1 OLR       0.126000
     41 H14        155.0480   191.8970   165.8150 h1         1 OLR       0.044700
     42 H15        156.6220   191.8730   166.6480 h1         1 OLR       0.044700
     43 H16        154.8710   191.6650   168.3240 h1         1 OLR       0.031700
     44 H17        155.6430   193.2470   168.5120 h1         1 OLR       0.031700
     45 H18        153.3410   193.4080   168.5980 ho         1 OLR       0.447000
@<TRIPOS>BOND
     1     1    19 1   
     2     1    20 1   
     3     1    28 1   
     4     2    21 2   
     5     2    22 1   
     6     3     4 ar  
     7     3    20 ar  
     8     3    29 1   
     9     4     5 ar  
    10     4    30 1   
    11     5     6 ar  
    12     5     7 1   
    13     6    12 ar  
    14     6    31 1   
    15     7     8 1   
    16     7    21 1   
    17     7    32 1   
    18     8    33 1   
    19     8    34 1   
    20     8    35 1   
    21     9    11 ar  
    22     9    22 1   
    23     9    23 ar  
    24    10    15 ar  
    25    10    16 ar  
    26    10    25 1   
    27    11    16 ar  
    28    11    36 1   
    29    12    20 ar  
    30    12    27 1   
    31    13    14 2   
    32    13    21 1   
    33    13    37 1   
    34    14    22 1   
    35    14    38 1   
    36    15    23 ar  
    37    15    39 1   
    38    16    40 1   
    39    17    18 1   
    40    17    25 1   
    41    17    41 1   
    42    17    42 1   
    43    18    26 1   
    44    18    43 1   
    45    18    44 1   
    46    19    24 2   
    47    19    27 1   
    48    26    45 1   
@<TRIPOS>SUBSTRUCTURE
     1 OLR         1 TEMP              0 ****  ****    0 ROOT
