@<TRIPOS>MOLECULE
OLR
   45    48     1     0     0
SMALL
abcg2


@<TRIPOS>ATOM
      1 N1         160.9210   200.9370   156.7140 ns         1 OLR      -0.507600
      2 N3         157.7090   195.2970   160.3660 nc         1 OLR      -0.471800
      3 C4         160.3720   198.5990   156.1110 ca         1 OLR      -0.131000
      4 C5         159.7110   197.4480   156.5210 ca         1 OLR      -0.075000
      5 C6         159.0210   197.3870   157.7300 ca         1 OLR      -0.093300
      6 C7         158.9910   198.5100   158.5540 ca         1 OLR      -0.031000
      7 C8         158.2660   196.1350   158.1190 c3         1 OLR      -0.035700
      8 C10        156.7620   196.3300   157.9310 c3         1 OLR      -0.079100
      9 C13        157.6790   194.4290   162.5840 ca         1 OLR       0.417500
     10 C15        156.2580   193.4960   164.7120 ca         1 OLR       0.090100
     11 C17        158.2810   193.5140   163.4350 ca         1 OLR      -0.134000
     12 C1         159.6470   199.6570   158.1510 ca         1 OLR      -0.175000
     13 C11        159.9190   195.5780   160.0660 cd         1 OLR      -0.213000
     14 C12        159.7120   195.0880   161.3260 cc         1 OLR      -0.164000
     15 C14        155.7520   194.4110   163.7850 ca         1 OLR       0.331900
     16 C16        157.5630   193.0500   164.5250 ca         1 OLR      -0.156000
     17 C18        155.9110   192.1870   166.6580 c3         1 OLR       0.159600
     18 C19        154.8160   191.9130   167.6540 c3         1 OLR       0.163600
     19 C2         160.7520   201.8850   157.6710 c          1 OLR       0.585600
     20 C3         160.3340   199.7080   156.9370 ca         1 OLR       0.045600
     21 C9         158.6250   195.6890   159.5070 cd         1 OLR       0.243300
     22 N2         158.3730   194.9330   161.4670 na         1 OLR       0.116300
     23 N4         156.4460   194.8670   162.7610 nb         1 OLR      -0.620000
     24 O1         161.1770   203.0130   157.6690 o          1 OLR      -0.495000
     25 O2         155.4370   193.1220   165.7020 os         1 OLR      -0.320100
     26 O3         153.7460   191.2690   167.0060 oh         1 OLR      -0.648000
     27 S1         159.7660   201.1850   158.9880 ss         1 OLR      -0.032600
     28 H1         161.4560   201.1460   155.8820 hn         1 OLR       0.457000
     29 H2         160.9040   198.6270   155.1690 ha         1 OLR       0.122000
     30 H3         159.7340   196.5760   155.8800 ha         1 OLR       0.117000
     31 H4         158.4630   198.4840   159.5000 ha         1 OLR       0.138000
     32 H5         158.5860   195.3420   157.4340 hc         1 OLR       0.059700
     33 H6         156.2120   195.4140   158.1440 hc         1 OLR       0.044367
     34 H7         156.3780   197.1130   158.5860 hc         1 OLR       0.044367
     35 H8         156.5530   196.6200   156.9020 hc         1 OLR       0.044367
     36 H9         159.2800   193.1430   163.2560 ha         1 OLR       0.130000
     37 H10        160.8620   195.8350   159.6120 ha         1 OLR       0.150000
     38 H11        160.4040   194.8660   162.1220 h4         1 OLR       0.154000
     39 H12        154.7380   194.7810   163.8990 h4         1 OLR       0.043100
     40 H13        158.0290   192.3370   165.1920 ha         1 OLR       0.126000
     41 H14        156.2170   191.2560   166.1670 h1         1 OLR       0.044700
     42 H15        156.7810   192.5870   167.1910 h1         1 OLR       0.044700
     43 H16        155.2550   191.2930   168.4460 h1         1 OLR       0.031700
     44 H17        154.5070   192.8550   168.1240 h1         1 OLR       0.031700
     45 H18        153.0560   191.1050   167.6550 ho         1 OLR       0.447000
@<TRIPOS>BOND
     1     1    19 1   
     2     1    20 1   
     3     1    28 1   
     4     2    21 2   
     5     2    22 1   
     6     3     4 ar  
     7     3    20 ar  
     8     3    29 1   
     9     4     5 ar  
    10     4    30 1   
    11     5     6 ar  
    12     5     7 1   
    13     6    12 ar  
    14     6    31 1   
    15     7     8 1   
    16     7    21 1   
    17     7    32 1   
    18     8    33 1   
    19     8    34 1   
    20     8    35 1   
    21     9    11 ar  
    22     9    22 1   
    23     9    23 ar  
    24    10    15 ar  
    25    10    16 ar  
    26    10    25 1   
    27    11    16 ar  
    28    11    36 1   
    29    12    20 ar  
    30    12    27 1   
    31    13    14 2   
    32    13    21 1   
    33    13    37 1   
    34    14    22 1   
    35    14    38 1   
    36    15    23 ar  
    37    15    39 1   
    38    16    40 1   
    39    17    18 1   
    40    17    25 1   
    41    17    41 1   
    42    17    42 1   
    43    18    26 1   
    44    18    43 1   
    45    18    44 1   
    46    19    24 2   
    47    19    27 1   
    48    26    45 1   
@<TRIPOS>SUBSTRUCTURE
     1 OLR         1 TEMP              0 ****  ****    0 ROOT
