@<TRIPOS>MOLECULE
OLT
   19    18     1     0     0
SMALL
bcc


@<TRIPOS>ATOM
      1 N           23.2530    25.0290    18.6810 n8         1 OLT      -0.890800
      2 CA          22.8050    26.3910    18.4460 c3         1 OLT      -0.004500
      3 C           21.4630    26.4220    17.6680 c          1 OLT       0.944600
      4 O           20.8670    27.5170    17.6720 o          1 OLT      -0.833300
      5 CB          23.7980    27.3640    17.7730 c3         1 OLT       0.126100
      6 OG1         23.8840    27.2470    16.3620 os         1 OLT      -0.404600
      7 CG2         25.1710    27.3640    18.4340 c3         1 OLT      -0.123100
      8 CD1         24.3740    26.0420    15.8270 c3         1 OLT       0.130700
      9 OXT         21.1040    25.3740    17.0970 o          1 OLT      -0.833300
     10 H           23.1400    24.4800    17.8400 hn         1 OLT       0.325300
     11 H2          24.2300    24.9980    18.9380 hn         1 OLT       0.325300
     12 HCA         22.6120    26.8460    19.4280 h1         1 OLT       0.043700
     13 HB          23.3710    28.3600    17.9190 h1         1 OLT       0.083700
     14 HG21        25.8060    28.1390    18.0030 hc         1 OLT       0.021367
     15 HG22        25.0710    27.5740    19.5000 hc         1 OLT       0.021367
     16 HG23        25.7030    26.4150    18.3390 hc         1 OLT       0.021367
     17 HD11        24.6310    26.2340    14.7840 h1         1 OLT       0.015367
     18 HD12        25.2770    25.6780    16.3260 h1         1 OLT       0.015367
     19 HD13        23.6300    25.2410    15.8430 h1         1 OLT       0.015367
@<TRIPOS>BOND
     1     1     2 1   
     2     1    10 1   
     3     1    11 1   
     4     2     3 1   
     5     2     5 1   
     6     2    12 1   
     7     3     4 1   
     8     3     9 1   
     9     5     6 1   
    10     5     7 1   
    11     5    13 1   
    12     6     8 1   
    13     7    14 1   
    14     7    15 1   
    15     7    16 1   
    16     8    17 1   
    17     8    18 1   
    18     8    19 1   
@<TRIPOS>SUBSTRUCTURE
     1 OLT         1 TEMP              0 ****  ****    0 ROOT
