@<TRIPOS>MOLECULE
OLT
   19    18     1     0     0
SMALL
No Charge or Current Charge


@<TRIPOS>ATOM
      1 N           23.2750    24.9650    18.5930 n8         1 OLT      -0.890800
      2 CA          22.7410    26.3780    18.4030 c3         1 OLT      -0.004500
      3 C           21.3280    26.5620    17.7050 c          1 OLT       0.944600
      4 O           20.6130    27.4890    18.0770 o          1 OLT      -0.833300
      5 CB          23.7690    27.3710    17.7640 c3         1 OLT       0.126100
      6 OG1         23.9100    27.1800    16.3300 os         1 OLT      -0.404600
      7 CG2         25.1660    27.3880    18.4380 c3         1 OLT      -0.123100
      8 CD1         24.4880    25.9540    15.8350 c3         1 OLT       0.130700
      9 OXT         20.9280    25.7050    16.9190 o          1 OLT      -0.833300
     10 H           23.3010    24.5000    17.6800 hn         1 OLT       0.325300
     11 H2          24.2540    25.0120    18.8910 hn         1 OLT       0.325300
     12 HCA         22.5890    26.7500    19.4260 h1         1 OLT       0.043700
     13 HB          23.3490    28.3750    17.9210 h1         1 OLT       0.083700
     14 HG21        25.8280    28.0990    17.9300 hc         1 OLT       0.021367
     15 HG22        25.0750    27.7030    19.4850 hc         1 OLT       0.021367
     16 HG23        25.6450    26.4020    18.4270 hc         1 OLT       0.021367
     17 HD11        24.6180    26.0190    14.7480 h1         1 OLT       0.015367
     18 HD12        25.4760    25.7650    16.2740 h1         1 OLT       0.015367
     19 HD13        23.8370    25.0950    16.0340 h1         1 OLT       0.015367
@<TRIPOS>BOND
     1     1     2 1   
     2     1    10 1   
     3     1    11 1   
     4     2     3 1   
     5     2     5 1   
     6     2    12 1   
     7     3     4 1   
     8     3     9 1   
     9     5     6 1   
    10     5     7 1   
    11     5    13 1   
    12     6     8 1   
    13     7    14 1   
    14     7    15 1   
    15     7    16 1   
    16     8    17 1   
    17     8    18 1   
    18     8    19 1   
@<TRIPOS>SUBSTRUCTURE
     1 OLT         1 TEMP              0 ****  ****    0 ROOT
