@<TRIPOS>MOLECULE
OLU
   22    24     1     0     0
SMALL
No Charge or Current Charge


@<TRIPOS>ATOM
      1 O6          -4.8940    -1.6340     0.1610 o          1 OLU      -0.471100
      2 C4          -4.0390    -0.7690     0.0660 c          1 OLU       0.698500
      3 N3          -2.6760    -0.9620     0.2460 ne         1 OLU      -0.642100
      4 C2          -1.9020     0.0720     0.3550 cf         1 OLU       0.485900
      5 S1          -2.7310     1.6320     0.2950 ss         1 OLU      -0.195200
      6 C5          -4.2650     0.7240    -0.2510 c5         1 OLU      -0.130400
      7 C3          -0.4250     0.0310     0.2610 cd         1 OLU       0.280900
      8 S2           0.4110    -1.5400     0.1350 ss         1 OLU       0.173800
      9 C10          1.8940    -0.6050     0.0970 ca         1 OLU      -0.164000
     10 C6           3.1940    -1.1280    -0.0040 ca         1 OLU      -0.126000
     11 C1           1.6530     0.7550     0.1790 ca         1 OLU       0.044400
     12 N1           0.3250     1.1560     0.2760 nc         1 OLU      -0.489100
     13 C9           2.7390     1.6490     0.1620 ca         1 OLU       0.001000
     14 C8           4.0550     1.1510     0.0610 ca         1 OLU      -0.205000
     15 C7           4.2810    -0.2370    -0.0220 ca         1 OLU       0.165100
     16 O7           5.5510    -0.7200    -0.1190 oh         1 OLU      -0.525100
     17 H5'1        -4.4050     0.8250    -1.3330 h1         1 OLU       0.113700
     18 H5'2        -5.1540     1.0820     0.2800 h1         1 OLU       0.113700
     19 H6           3.3610    -2.2010    -0.0680 ha         1 OLU       0.144000
     20 H9           2.5610     2.7200     0.2260 ha         1 OLU       0.136000
     21 H8           4.8900     1.8480     0.0480 ha         1 OLU       0.121000
     22 HO7          6.1710     0.0390    -0.1170 ho         1 OLU       0.472000
@<TRIPOS>BOND
     1     1     2 2   
     2     2     3 1   
     3     2     6 1   
     4     3     4 2   
     5     4     5 1   
     6     4     7 1   
     7     5     6 1   
     8     6    17 1   
     9     6    18 1   
    10     7     8 1   
    11     7    12 2   
    12     8     9 1   
    13     9    10 ar  
    14     9    11 ar  
    15    10    15 ar  
    16    10    19 1   
    17    11    12 1   
    18    11    13 ar  
    19    13    14 ar  
    20    13    20 1   
    21    14    15 ar  
    22    14    21 1   
    23    15    16 1   
    24    16    22 1   
@<TRIPOS>SUBSTRUCTURE
     1 OLU         1 TEMP              0 ****  ****    0 ROOT
