@<TRIPOS>MOLECULE
OLU
   22    24     1     0     0
SMALL
abcg2


@<TRIPOS>ATOM
      1 O6          -4.7940    -1.5870    -0.0220 o          1 OLU      -0.471100
      2 C4          -3.9370    -0.7420    -0.0140 c          1 OLU       0.698500
      3 N3          -2.5780    -1.0270     0.0090 ne         1 OLU      -0.642100
      4 C2          -1.8680     0.0430     0.0170 cf         1 OLU       0.485900
      5 S1          -2.6450     1.5970    -0.0010 ss         1 OLU      -0.195200
      6 C5          -4.2370     0.7540    -0.0270 c5         1 OLU      -0.130400
      7 C3          -0.4230     0.0020     0.0380 cd         1 OLU       0.280900
      8 S2           0.4180    -1.5200     0.0630 ss         1 OLU       0.173800
      9 C10          1.9030    -0.6420     0.0730 ca         1 OLU      -0.164000
     10 C6           3.1980    -1.1390     0.0920 ca         1 OLU      -0.126000
     11 C1           1.6300     0.7410     0.0580 ca         1 OLU       0.044400
     12 N1           0.3070     1.0640     0.0390 nc         1 OLU      -0.489100
     13 C9           2.6940     1.6480     0.0610 ca         1 OLU       0.001000
     14 C8           3.9800     1.1680     0.0790 ca         1 OLU      -0.205000
     15 C7           4.2380    -0.2190     0.0950 ca         1 OLU       0.165100
     16 O7           5.4890    -0.6990     0.1110 oh         1 OLU      -0.525100
     17 H5'1        -4.7960     1.0230    -0.9240 h1         1 OLU       0.113700
     18 H5'2        -4.8310     1.0310     0.8450 h1         1 OLU       0.113700
     19 H6           3.4010    -2.2010     0.1030 ha         1 OLU       0.144000
     20 H9           2.5020     2.7120     0.0500 ha         1 OLU       0.136000
     21 H8           4.8110     1.8630     0.0820 ha         1 OLU       0.121000
     22 HO7          6.1330     0.0190     0.1060 ho         1 OLU       0.472000
@<TRIPOS>BOND
     1     1     2 2   
     2     2     3 1   
     3     2     6 1   
     4     3     4 2   
     5     4     5 1   
     6     4     7 1   
     7     5     6 1   
     8     6    17 1   
     9     6    18 1   
    10     7     8 1   
    11     7    12 2   
    12     8     9 1   
    13     9    10 ar  
    14     9    11 ar  
    15    10    15 ar  
    16    10    19 1   
    17    11    12 1   
    18    11    13 ar  
    19    13    14 ar  
    20    13    20 1   
    21    14    15 ar  
    22    14    21 1   
    23    15    16 1   
    24    16    22 1   
@<TRIPOS>SUBSTRUCTURE
     1 OLU         1 TEMP              0 ****  ****    0 ROOT
