@<TRIPOS>MOLECULE
OLV
  107   113     1     0     0
SMALL
abcg2


@<TRIPOS>ATOM
      1 C10        -15.7770   -20.4750    15.6180 c          1 OLV       0.601100
      2 C17        -19.1100   -17.7600    12.9890 c6         1 OLV       0.195300
      3 C21        -13.4000   -15.9180    16.1430 ca         1 OLV       0.554300
      4 C24        -12.0770   -13.6680    15.6390 ca         1 OLV       0.166000
      5 C26        -13.8800   -14.9890    15.1520 ca         1 OLV       0.322300
      6 C28         -9.7350   -13.1860    17.0950 ca         1 OLV       0.164100
      7 C01        -13.4770   -19.7610    15.6680 c5         1 OLV       0.030700
      8 C02        -12.6840   -18.8960    16.6530 c5         1 OLV      -0.110400
      9 C03        -13.7490   -17.9920    17.2560 c5         1 OLV       0.164300
     10 C04        -14.9320   -18.9270    17.4090 c5         1 OLV       0.107000
     11 C06        -12.9290   -21.1770    15.5820 c          1 OLV       0.591100
     12 C09        -11.9580   -22.8610    14.1730 cx         1 OLV      -0.069600
     13 C11        -17.1480   -20.6100    16.2870 c3         1 OLV       0.064700
     14 C18        -17.3400   -22.0600    16.7370 c3         1 OLV      -0.089400
     15 C19        -16.3800   -22.4790    17.8490 c3         1 OLV      -0.080400
     16 C23        -11.6220   -14.5940    16.5980 ca         1 OLV       0.306000
     17 C27        -10.4430   -14.3460    17.3230 ca         1 OLV      -0.203000
     18 C29        -10.1920   -12.2510    16.1340 ca         1 OLV      -0.141000
     19 C30        -11.3340   -12.4900    15.4240 ca         1 OLV      -0.029000
     20 C32         -8.0880   -13.7340    18.7050 c3         1 OLV       0.145900
     21 C33        -15.1320   -15.2720    14.3890 c3         1 OLV      -0.139400
     22 C34        -10.7360   -23.4040    14.8380 c          1 OLV       0.681100
     23 C40         -8.6340   -21.3560    17.4450 cx         1 OLV      -0.397000
     24 C41         -8.2450   -20.0440    16.8210 cx         1 OLV      -0.079900
     25 C42         -7.3000   -20.7380    17.7420 cx         1 OLV      -0.079900
     26 C43         -9.7030   -21.4250    18.5060 c3         1 OLV      -0.044100
     27 C44        -13.1630   -23.7780    13.9490 cx         1 OLV      -0.036500
     28 C45        -13.2830   -25.1550    14.4650 c2         1 OLV      -0.189200
     29 C46        -14.2530   -25.5700    15.2820 c2         1 OLV      -0.190200
     30 C47        -15.3430   -24.7480    15.8970 c3         1 OLV      -0.048200
     31 C48        -15.2710   -24.7660    17.4260 c3         1 OLV      -0.074400
     32 C49        -12.2870   -23.4010    12.8090 cx         1 OLV      -0.096400
     33 C50        -16.3820   -23.9890    18.1320 c3         1 OLV      -0.066400
     34 C51        -19.7570   -18.1240    11.6520 c6         1 OLV      -0.088900
     35 C52        -20.3970   -16.8980    10.9830 c6         1 OLV      -0.071900
     36 C53        -19.6550   -15.6190    11.3550 c6         1 OLV      -0.079400
     37 C54        -19.7360   -15.3580    12.8690 c6         1 OLV      -0.071900
     38 C55        -19.8880   -16.6540    13.6800 c6         1 OLV      -0.088900
     39 N05        -14.8100   -19.7950    16.2470 n          1 OLV      -0.383800
     40 N08        -12.2770   -21.4980    14.4380 ns         1 OLV      -0.475900
     41 N13        -18.1790   -20.2600    15.3390 ns         1 OLV      -0.486900
     42 N22        -12.3220   -15.7340    16.8290 nb         1 OLV      -0.758000
     43 N25        -13.2110   -13.8990    14.9300 nb         1 OLV      -0.615000
     44 N35        -10.0090   -22.4560    15.5140 ns         1 OLV      -0.573300
     45 O07        -13.0310   -21.9570    16.5080 o          1 OLV      -0.569100
     46 O12        -15.5650   -21.0350    14.5490 o          1 OLV      -0.623100
     47 O15        -19.0620   -18.9660    13.7690 os         1 OLV      -0.458100
     48 O16        -17.3670   -18.1730    15.0370 o          1 OLV      -0.552000
     49 O20        -14.1580   -16.9930    16.3220 os         1 OLV      -0.443300
     50 O31         -8.6020   -12.8480    17.7290 os         1 OLV      -0.335100
     51 O36        -10.4030   -24.5650    14.7770 o          1 OLV      -0.539100
     52 O38         -7.4600   -22.6830    15.4740 o          1 OLV      -0.517000
     53 O39         -8.7920   -23.9780    17.1430 o          1 OLV      -0.517000
     54 S37         -8.5970   -22.7630    16.3750 s6         1 OLV       1.255800
     55 H171       -18.0850   -17.4130    12.8230 h1         1 OLV       0.063700
     56 H011       -13.5030   -19.2960    14.6780 h1         1 OLV       0.077700
     57 H021       -12.2620   -19.5040    17.4560 hc         1 OLV       0.075700
     58 H022       -11.8690   -18.3560    16.1750 hc         1 OLV       0.075700
     59 H031       -13.4460   -17.5370    18.2000 h1         1 OLV       0.088700
     60 H042       -15.8750   -18.3860    17.4160 h1         1 OLV       0.074700
     61 H041       -14.8410   -19.4880    18.3430 h1         1 OLV       0.074700
     62 H111       -17.2280   -19.9620    17.1620 h1         1 OLV       0.071700
     63 H181       -18.3680   -22.1740    17.0900 hc         1 OLV       0.057200
     64 H182       -17.2380   -22.7150    15.8680 hc         1 OLV       0.057200
     65 H192       -15.3590   -22.1690    17.6160 hc         1 OLV       0.049700
     66 H191       -16.6580   -21.9360    18.7570 hc         1 OLV       0.049700
     67 H271       -10.1270   -15.0880    18.0440 ha         1 OLV       0.133000
     68 H291        -9.6230   -11.3440    15.9720 ha         1 OLV       0.134000
     69 H301       -11.6860   -11.7770    14.6900 ha         1 OLV       0.135000
     70 H323        -7.1770   -13.2780    19.0850 h1         1 OLV       0.044700
     71 H321        -8.7860   -13.8750    19.5340 h1         1 OLV       0.044700
     72 H322        -7.8440   -14.7100    18.2790 h1         1 OLV       0.044700
     73 H332       -15.3010   -14.4860    13.6560 hc         1 OLV       0.062033
     74 H333       -15.0790   -16.2320    13.8720 hc         1 OLV       0.062033
     75 H331       -15.9980   -15.3290    15.0490 hc         1 OLV       0.062033
     76 H411        -7.9920   -20.0100    15.7680 hc         1 OLV       0.087950
     77 H412        -8.7870   -19.1780    17.1790 hc         1 OLV       0.087950
     78 H421        -6.4080   -21.1760    17.3150 hc         1 OLV       0.087950
     79 H422        -7.1770   -20.3620    18.7490 hc         1 OLV       0.087950
     80 H433        -9.6780   -20.5090    19.0930 hc         1 OLV       0.054700
     81 H431       -10.7010   -21.5190    18.0790 hc         1 OLV       0.054700
     82 H432        -9.5390   -22.2610    19.1840 hc         1 OLV       0.054700
     83 H441       -14.0720   -23.1920    14.0080 hc         1 OLV       0.101700
     84 H451       -12.5560   -25.8790    14.1190 ha         1 OLV       0.190000
     85 H461       -14.2540   -26.6210    15.5560 ha         1 OLV       0.168000
     86 H472       -15.3000   -23.7190    15.5430 hc         1 OLV       0.046700
     87 H471       -16.3140   -25.1490    15.5850 hc         1 OLV       0.046700
     88 H481       -15.2930   -25.8050    17.7700 hc         1 OLV       0.048200
     89 H482       -14.3030   -24.3600    17.7310 hc         1 OLV       0.048200
     90 H492       -11.6100   -24.1470    12.4100 hc         1 OLV       0.087200
     91 H491       -12.6590   -22.6940    12.0790 hc         1 OLV       0.087200
     92 H501       -17.3570   -24.4160    17.8710 hc         1 OLV       0.036700
     93 H502       -16.2670   -24.1490    19.2060 hc         1 OLV       0.036700
     94 H512       -20.5200   -18.8890    11.8160 hc         1 OLV       0.053700
     95 H511       -19.0050   -18.5670    10.9950 hc         1 OLV       0.053700
     96 H521       -21.4420   -16.8070    11.2930 hc         1 OLV       0.043450
     97 H522       -20.4120   -17.0350     9.9010 hc         1 OLV       0.043450
     98 H531       -18.6110   -15.7100    11.0420 hc         1 OLV       0.041700
     99 H532       -20.0610   -14.7680    10.8060 hc         1 OLV       0.041700
    100 H541       -18.8390   -14.8290    13.1980 hc         1 OLV       0.043450
    101 H542       -20.5780   -14.6990    13.0900 hc         1 OLV       0.043450
    102 H551       -19.5270   -16.4980    14.6970 hc         1 OLV       0.053700
    103 H552       -20.9400   -16.9440    13.7560 hc         1 OLV       0.053700
    104 H081       -12.2730   -20.8430    13.6710 hn         1 OLV       0.323500
    105 H131       -18.7360   -20.9970    14.9360 hn         1 OLV       0.335500
    106 H351       -10.2180   -21.4790    15.3410 hn         1 OLV       0.336500
    107 C14        -18.1430   -19.0550    14.7310 c          1 OLV       0.641100
@<TRIPOS>BOND
     1     1    13 1   
     2     1    39 1   
     3     1    46 2   
     4     2    34 1   
     5     2    38 1   
     6     2    47 1   
     7     2    55 1   
     8     3     5 ar  
     9     3    42 ar  
    10     3    49 1   
    11     4    16 ar  
    12     4    19 ar  
    13     4    43 ar  
    14     5    21 1   
    15     5    43 ar  
    16     6    17 ar  
    17     6    18 ar  
    18     6    50 1   
    19     7     8 1   
    20     7    11 1   
    21     7    39 1   
    22     7    56 1   
    23     8     9 1   
    24     8    57 1   
    25     8    58 1   
    26     9    10 1   
    27     9    49 1   
    28     9    59 1   
    29    10    39 1   
    30    10    60 1   
    31    10    61 1   
    32    11    40 1   
    33    11    45 2   
    34    12    22 1   
    35    12    27 1   
    36    12    32 1   
    37    12    40 1   
    38    13    14 1   
    39    13    41 1   
    40    13    62 1   
    41    14    15 1   
    42    14    63 1   
    43    14    64 1   
    44    15    33 1   
    45    15    65 1   
    46    15    66 1   
    47    16    17 ar  
    48    16    42 ar  
    49    17    67 1   
    50    18    19 ar  
    51    18    68 1   
    52    19    69 1   
    53    20    50 1   
    54    20    70 1   
    55    20    71 1   
    56    20    72 1   
    57    21    73 1   
    58    21    74 1   
    59    21    75 1   
    60    22    44 1   
    61    22    51 2   
    62    23    24 1   
    63    23    25 1   
    64    23    26 1   
    65    23    54 1   
    66    24    25 1   
    67    24    76 1   
    68    24    77 1   
    69    25    78 1   
    70    25    79 1   
    71    26    80 1   
    72    26    81 1   
    73    26    82 1   
    74    27    28 1   
    75    27    32 1   
    76    27    83 1   
    77    28    29 2   
    78    28    84 1   
    79    29    30 1   
    80    29    85 1   
    81    30    31 1   
    82    30    86 1   
    83    30    87 1   
    84    31    33 1   
    85    31    88 1   
    86    31    89 1   
    87    32    90 1   
    88    32    91 1   
    89    33    92 1   
    90    33    93 1   
    91    34    35 1   
    92    34    94 1   
    93    34    95 1   
    94    35    36 1   
    95    35    96 1   
    96    35    97 1   
    97    36    37 1   
    98    36    98 1   
    99    36    99 1   
   100    37    38 1   
   101    37   100 1   
   102    37   101 1   
   103    38   102 1   
   104    38   103 1   
   105    40   104 1   
   106    41   105 1   
   107    41   107 1   
   108    44    54 1   
   109    44   106 1   
   110    47   107 1   
   111    48   107 2   
   112    52    54 2   
   113    53    54 2   
@<TRIPOS>SUBSTRUCTURE
     1 OLV         1 TEMP              0 ****  ****    0 ROOT
