@<TRIPOS>MOLECULE
OLV
  107   113     1     0     0
SMALL
No Charge or Current Charge


@<TRIPOS>ATOM
      1 C10        -15.5140   -19.5110    15.0620 c          1 OLV       0.601100
      2 C17        -21.0650   -18.0430    13.2220 c6         1 OLV       0.195300
      3 C21        -11.9150   -15.7430    15.8420 ca         1 OLV       0.554300
      4 C24         -9.5450   -14.4020    15.6590 ca         1 OLV       0.166000
      5 C26        -11.2910   -15.4640    14.5820 ca         1 OLV       0.322300
      6 C28         -8.3300   -13.5380    18.0710 ca         1 OLV       0.164100
      7 C01        -13.0610   -19.3070    15.6460 c5         1 OLV       0.030700
      8 C02        -12.3660   -18.5260    16.8060 c5         1 OLV      -0.110400
      9 C03        -13.2920   -17.2880    16.9940 c5         1 OLV       0.164300
     10 C04        -14.7060   -17.9280    16.8870 c5         1 OLV       0.107000
     11 C06        -12.7270   -20.8230    15.7860 c          1 OLV       0.591100
     12 C09        -11.9200   -22.7280    14.4060 cx         1 OLV      -0.069600
     13 C11        -16.9900   -19.5160    15.5710 c3         1 OLV       0.064700
     14 C18        -17.3890   -20.9130    16.1230 c3         1 OLV      -0.089400
     15 C19        -16.5750   -21.3950    17.3530 c3         1 OLV      -0.080400
     16 C23        -10.1760   -14.6600    16.9240 ca         1 OLV       0.306000
     17 C27         -9.5600   -14.2240    18.1080 ca         1 OLV      -0.203000
     18 C29         -7.7160   -13.2870    16.8370 ca         1 OLV      -0.141000
     19 C30         -8.3180   -13.7150    15.6420 ca         1 OLV      -0.029000
     20 C32         -8.2320   -13.3010    20.5270 c3         1 OLV       0.145900
     21 C33        -11.9120   -15.9080    13.2640 c3         1 OLV      -0.139400
     22 C34        -11.0340   -23.4820    15.4170 c          1 OLV       0.681100
     23 C40         -8.0170   -21.5070    17.2960 cx         1 OLV      -0.397000
     24 C41         -6.9860   -20.9520    16.3290 cx         1 OLV      -0.079900
     25 C42         -6.5500   -21.4620    17.6850 cx         1 OLV      -0.079900
     26 C43         -9.0110   -20.5540    17.9730 c3         1 OLV      -0.044100
     27 C44        -13.1120   -23.3850    13.7210 cx         1 OLV      -0.036500
     28 C45        -13.6280   -24.7150    14.1610 c2         1 OLV      -0.189200
     29 C46        -14.7170   -24.9180    14.9280 c2         1 OLV      -0.190200
     30 C47        -15.6550   -23.8580    15.4910 c3         1 OLV      -0.048200
     31 C48        -15.7010   -23.8560    17.0360 c3         1 OLV      -0.074400
     32 C49        -11.8120   -23.2180    12.9750 cx         1 OLV      -0.096400
     33 C50        -16.7480   -22.9030    17.6790 c3         1 OLV      -0.066400
     34 C51        -21.2840   -17.5170    11.7720 c6         1 OLV      -0.088900
     35 C52        -22.7560   -17.6450    11.2790 c6         1 OLV      -0.071900
     36 C53        -23.7570   -17.5620    12.4540 c6         1 OLV      -0.079400
     37 C54        -23.5350   -18.7140    13.4750 c6         1 OLV      -0.071900
     38 C55        -22.0560   -19.1920    13.5480 c6         1 OLV      -0.088900
     39 N05        -14.4970   -19.0210    15.9080 n          1 OLV      -0.383800
     40 N08        -12.1260   -21.3060    14.6390 ns         1 OLV      -0.475900
     41 N13        -17.8900   -19.1450    14.4620 ns         1 OLV      -0.486900
     42 N22        -11.3590   -15.3200    17.0120 nb         1 OLV      -0.758000
     43 N25        -10.1050   -14.8020    14.4860 nb         1 OLV      -0.615000
     44 N35         -9.9470   -22.7640    15.7860 ns         1 OLV      -0.573300
     45 O07        -12.9370   -21.5260    16.7650 o          1 OLV      -0.569100
     46 O12        -15.2210   -19.9970    13.9730 o          1 OLV      -0.623100
     47 O15        -19.6990   -18.4750    13.3720 os         1 OLV      -0.458100
     48 O16        -19.7080   -18.4410    15.6730 o          1 OLV      -0.552000
     49 O20        -13.1420   -16.3960    15.8450 os         1 OLV      -0.443300
     50 O31         -7.6900   -13.0940    19.2100 os         1 OLV      -0.335100
     51 O36        -11.2520   -24.6100    15.8340 o          1 OLV      -0.539100
     52 O38         -7.8060   -24.0130    16.2620 o          1 OLV      -0.517000
     53 O39         -9.4900   -23.6420    18.1300 o          1 OLV      -0.517000
     54 S37         -8.8060   -23.1670    16.9230 s6         1 OLV       1.255800
     55 H171       -21.2490   -17.2120    13.9190 h1         1 OLV       0.063700
     56 H011       -12.7600   -18.9300    14.6600 h1         1 OLV       0.077700
     57 H021       -12.3470   -19.1100    17.7340 hc         1 OLV       0.075700
     58 H022       -11.3250   -18.2720    16.5780 hc         1 OLV       0.075700
     59 H031       -13.1570   -16.7530    17.9440 h1         1 OLV       0.088700
     60 H042       -15.4510   -17.1950    16.5470 h1         1 OLV       0.074700
     61 H041       -15.0330   -18.3310    17.8550 h1         1 OLV       0.074700
     62 H111       -17.1000   -18.7730    16.3690 h1         1 OLV       0.071700
     63 H181       -18.4500   -20.8990    16.4010 hc         1 OLV       0.057200
     64 H182       -17.3040   -21.6390    15.3080 hc         1 OLV       0.057200
     65 H192       -15.5100   -21.1860    17.2220 hc         1 OLV       0.049700
     66 H191       -16.8940   -20.8060    18.2220 hc         1 OLV       0.049700
     67 H271       -10.0560   -14.4320    19.0500 ha         1 OLV       0.133000
     68 H291        -6.7670   -12.7570    16.8060 ha         1 OLV       0.134000
     69 H301        -7.8300   -13.5120    14.6920 ha         1 OLV       0.135000
     70 H323        -7.5650   -12.8720    21.2840 h1         1 OLV       0.044700
     71 H321        -9.2130   -12.8200    20.6260 h1         1 OLV       0.044700
     72 H322        -8.3420   -14.3730    20.7390 h1         1 OLV       0.044700
     73 H332       -11.3390   -15.5510    12.4000 hc         1 OLV       0.062033
     74 H333       -11.9580   -17.0010    13.2060 hc         1 OLV       0.062033
     75 H331       -12.9340   -15.5230    13.1670 hc         1 OLV       0.062033
     76 H411        -6.7130   -21.5450    15.4580 hc         1 OLV       0.087950
     77 H412        -6.9590   -19.8760    16.1640 hc         1 OLV       0.087950
     78 H421        -5.9900   -22.3950    17.7160 hc         1 OLV       0.087950
     79 H422        -6.2350   -20.7270    18.4230 hc         1 OLV       0.087950
     80 H433        -8.5550   -19.5770    18.1770 hc         1 OLV       0.054700
     81 H431        -9.8920   -20.3780    17.3450 hc         1 OLV       0.054700
     82 H432        -9.3590   -20.9570    18.9330 hc         1 OLV       0.054700
     83 H441       -13.9080   -22.7190    13.3920 hc         1 OLV       0.101700
     84 H451       -13.0480   -25.5750    13.8180 ha         1 OLV       0.190000
     85 H461       -15.0020   -25.9390    15.1900 ha         1 OLV       0.168000
     86 H472       -15.3570   -22.8600    15.1520 hc         1 OLV       0.046700
     87 H471       -16.6670   -24.0310    15.1040 hc         1 OLV       0.046700
     88 H481       -15.9140   -24.8760    17.3800 hc         1 OLV       0.048200
     89 H482       -14.7050   -23.6050    17.4190 hc         1 OLV       0.048200
     90 H492       -11.2210   -24.1110    12.7820 hc         1 OLV       0.087200
     91 H491       -11.7740   -22.4760    12.1810 hc         1 OLV       0.087200
     92 H501       -17.7600   -23.2270    17.4070 hc         1 OLV       0.036700
     93 H502       -16.6760   -23.0240    18.7670 hc         1 OLV       0.036700
     94 H512       -20.6270   -18.0520    11.0720 hc         1 OLV       0.053700
     95 H511       -20.9760   -16.4640    11.7340 hc         1 OLV       0.053700
     96 H521       -22.8890   -18.6040    10.7590 hc         1 OLV       0.043450
     97 H522       -22.9710   -16.8620    10.5390 hc         1 OLV       0.043450
     98 H531       -23.6420   -16.5920    12.9590 hc         1 OLV       0.041700
     99 H532       -24.7890   -17.5900    12.0780 hc         1 OLV       0.041700
    100 H541       -23.8670   -18.3790    14.4680 hc         1 OLV       0.043450
    101 H542       -24.1740   -19.5690    13.2150 hc         1 OLV       0.043450
    102 H551       -21.8580   -19.6120    14.5430 hc         1 OLV       0.053700
    103 H552       -21.9000   -20.0120    12.8330 hc         1 OLV       0.053700
    104 H081       -12.0030   -20.6500    13.8750 hn         1 OLV       0.323500
    105 H131       -17.5720   -19.2790    13.5090 hn         1 OLV       0.335500
    106 H351        -9.8060   -21.8480    15.4010 hn         1 OLV       0.336500
    107 C14        -19.1590   -18.6670    14.6060 c          1 OLV       0.641100
@<TRIPOS>BOND
     1     1    13 1   
     2     1    39 1   
     3     1    46 2   
     4     2    34 1   
     5     2    38 1   
     6     2    47 1   
     7     2    55 1   
     8     3     5 ar  
     9     3    42 ar  
    10     3    49 1   
    11     4    16 ar  
    12     4    19 ar  
    13     4    43 ar  
    14     5    21 1   
    15     5    43 ar  
    16     6    17 ar  
    17     6    18 ar  
    18     6    50 1   
    19     7     8 1   
    20     7    11 1   
    21     7    39 1   
    22     7    56 1   
    23     8     9 1   
    24     8    57 1   
    25     8    58 1   
    26     9    10 1   
    27     9    49 1   
    28     9    59 1   
    29    10    39 1   
    30    10    60 1   
    31    10    61 1   
    32    11    40 1   
    33    11    45 2   
    34    12    22 1   
    35    12    27 1   
    36    12    32 1   
    37    12    40 1   
    38    13    14 1   
    39    13    41 1   
    40    13    62 1   
    41    14    15 1   
    42    14    63 1   
    43    14    64 1   
    44    15    33 1   
    45    15    65 1   
    46    15    66 1   
    47    16    17 ar  
    48    16    42 ar  
    49    17    67 1   
    50    18    19 ar  
    51    18    68 1   
    52    19    69 1   
    53    20    50 1   
    54    20    70 1   
    55    20    71 1   
    56    20    72 1   
    57    21    73 1   
    58    21    74 1   
    59    21    75 1   
    60    22    44 1   
    61    22    51 2   
    62    23    24 1   
    63    23    25 1   
    64    23    26 1   
    65    23    54 1   
    66    24    25 1   
    67    24    76 1   
    68    24    77 1   
    69    25    78 1   
    70    25    79 1   
    71    26    80 1   
    72    26    81 1   
    73    26    82 1   
    74    27    28 1   
    75    27    32 1   
    76    27    83 1   
    77    28    29 2   
    78    28    84 1   
    79    29    30 1   
    80    29    85 1   
    81    30    31 1   
    82    30    86 1   
    83    30    87 1   
    84    31    33 1   
    85    31    88 1   
    86    31    89 1   
    87    32    90 1   
    88    32    91 1   
    89    33    92 1   
    90    33    93 1   
    91    34    35 1   
    92    34    94 1   
    93    34    95 1   
    94    35    36 1   
    95    35    96 1   
    96    35    97 1   
    97    36    37 1   
    98    36    98 1   
    99    36    99 1   
   100    37    38 1   
   101    37   100 1   
   102    37   101 1   
   103    38   102 1   
   104    38   103 1   
   105    40   104 1   
   106    41   105 1   
   107    41   107 1   
   108    44    54 1   
   109    44   106 1   
   110    47   107 1   
   111    48   107 2   
   112    52    54 2   
   113    53    54 2   
@<TRIPOS>SUBSTRUCTURE
     1 OLV         1 TEMP              0 ****  ****    0 ROOT
