@<TRIPOS>MOLECULE
OLW
   39    41     1     0     0
SMALL
No Charge or Current Charge


@<TRIPOS>ATOM
      1 N01          7.1520    -1.2500     1.0960 nc         1 OLW      -0.669000
      2 C02          6.0020    -0.7230     1.5110 cd         1 OLW       0.430400
      3 N03          5.0700    -0.8520     0.5000 na         1 OLW      -0.191000
      4 C04          5.7070    -1.2650    -0.6540 cd         1 OLW      -0.191000
      5 C05          6.9690    -1.5820    -0.2250 cc         1 OLW       0.228900
      6 C1          -3.9570    -0.6010    -0.5500 ca         1 OLW      -0.095300
      7 N11          4.6350     1.4240    -0.0360 nb         1 OLW      -0.193000
      8 C12          4.1800     0.2110     0.3760 ca         1 OLW       0.242500
      9 N13          2.8780    -0.0120     0.6790 nb         1 OLW      -0.210000
     10 C14          1.9960     1.0010     0.5680 ca         1 OLW       0.157300
     11 C15          2.4040     2.2720     0.1460 ca         1 OLW      -0.234000
     12 C16          3.7600     2.4410    -0.1510 ca         1 OLW       0.138900
     13 C17          0.5460     0.7040     0.9090 c3         1 OLW      -0.139700
     14 C18         -0.2610     0.2960    -0.3330 c3         1 OLW       0.164800
     15 N19         -1.6610     0.0420     0.0440 n7         1 OLW      -0.867400
     16 C2          -4.7830     0.4770    -0.1760 ca         1 OLW      -0.049000
     17 C20         -2.5500    -0.3390    -1.0670 c3         1 OLW       0.207100
     18 C3          -6.0880     0.2440     0.3010 ca         1 OLW      -0.023000
     19 C4          -6.5680    -1.0760     0.4050 ca         1 OLW      -0.069000
     20 C5          -5.7470    -2.1540     0.0330 ca         1 OLW      -0.116000
     21 C6          -4.4450    -1.9180    -0.4420 ca         1 OLW      -0.086000
     22 C7          -6.9240     1.3490     0.6830 cg         1 OLW       0.324000
     23 N8          -7.6060     2.2480     0.9830 n1         1 OLW      -0.453000
     24 H02          5.7830    -0.2660     2.4700 h5         1 OLW       0.072100
     25 H04          5.2460    -1.3150    -1.6340 h4         1 OLW       0.175000
     26 H05          7.7890    -1.9900    -0.8030 h4         1 OLW       0.041100
     27 H15          1.7000     3.0950     0.0510 ha         1 OLW       0.144000
     28 H16          4.1550     3.3990    -0.4850 h4         1 OLW       0.033100
     29 H17          0.4900    -0.0960     1.6580 hc         1 OLW       0.072200
     30 H17A         0.0840     1.5880     1.3640 hc         1 OLW       0.072200
     31 H18         -0.2040     1.1030    -1.0780 h1         1 OLW       0.039700
     32 H18A         0.1900    -0.6030    -0.7780 h1         1 OLW       0.039700
     33 HN19        -1.6760    -0.7220     0.7300 hn         1 OLW       0.416000
     34 H2          -4.4060     1.4950    -0.2550 ha         1 OLW       0.139000
     35 H20         -2.1730    -1.2410    -1.5690 h1         1 OLW       0.041700
     36 H20A        -2.5890     0.4610    -1.8190 h1         1 OLW       0.041700
     37 H4          -7.5750    -1.2680     0.7720 ha         1 OLW       0.126000
     38 H5          -6.1190    -3.1730     0.1140 ha         1 OLW       0.121000
     39 H6          -3.8170    -2.7600    -0.7260 ha         1 OLW       0.115000
@<TRIPOS>BOND
     1     1     2 2   
     2     1     5 1   
     3     2     3 1   
     4     2    24 1   
     5     3     4 1   
     6     3     8 1   
     7     4     5 2   
     8     4    25 1   
     9     5    26 1   
    10     6    16 ar  
    11     6    17 1   
    12     6    21 ar  
    13     7     8 ar  
    14     7    12 ar  
    15     8     9 ar  
    16     9    10 ar  
    17    10    11 ar  
    18    10    13 1   
    19    11    12 ar  
    20    11    27 1   
    21    12    28 1   
    22    13    14 1   
    23    13    29 1   
    24    13    30 1   
    25    14    15 1   
    26    14    31 1   
    27    14    32 1   
    28    15    17 1   
    29    15    33 1   
    30    16    18 ar  
    31    16    34 1   
    32    17    35 1   
    33    17    36 1   
    34    18    19 ar  
    35    18    22 1   
    36    19    20 ar  
    37    19    37 1   
    38    20    21 ar  
    39    20    38 1   
    40    21    39 1   
    41    22    23 3   
@<TRIPOS>SUBSTRUCTURE
     1 OLW         1 TEMP              0 ****  ****    0 ROOT
