@<TRIPOS>MOLECULE
OLW
   39    41     1     0     0
SMALL
abcg2


@<TRIPOS>ATOM
      1 N01          5.7730    -2.4360     0.8460 nc         1 OLW      -0.669000
      2 C02          4.7150    -1.6830     0.7970 cd         1 OLW       0.430400
      3 N03          4.9860    -0.4740     0.2260 na         1 OLW      -0.191000
      4 C04          6.3220    -0.4790    -0.1070 cd         1 OLW      -0.191000
      5 C05          6.7840    -1.6950     0.2850 cc         1 OLW       0.228900
      6 C1          -3.7840    -0.8330    -0.3120 ca         1 OLW      -0.095300
      7 N11          4.5490     1.6490    -0.5680 nb         1 OLW      -0.193000
      8 C12          4.0780     0.5690     0.0220 ca         1 OLW       0.242500
      9 N13          2.8480     0.3590     0.4480 nb         1 OLW      -0.210000
     10 C14          1.9700     1.3420     0.2670 ca         1 OLW       0.157300
     11 C15          2.3530     2.5280    -0.3510 ca         1 OLW      -0.234000
     12 C16          3.6720     2.6290    -0.7510 ca         1 OLW       0.138900
     13 C17          0.5670     1.0980     0.7200 c3         1 OLW      -0.139700
     14 C18         -0.2070     0.2740    -0.3090 c3         1 OLW       0.164800
     15 N19         -1.5550     0.0320     0.1610 n7         1 OLW      -0.867400
     16 C2          -4.4610     0.2840     0.1640 ca         1 OLW      -0.049000
     17 C20         -2.3620    -0.7050    -0.7900 c3         1 OLW       0.207100
     18 C3          -5.7840     0.1710     0.5840 ca         1 OLW      -0.023000
     19 C4          -6.4480    -1.0560     0.5410 ca         1 OLW      -0.069000
     20 C5          -5.7700    -2.1660     0.0730 ca         1 OLW      -0.116000
     21 C6          -4.4490    -2.0530    -0.3460 ca         1 OLW      -0.086000
     22 C7          -6.4690     1.3290     1.0630 cg         1 OLW       0.324000
     23 N8          -7.0220     2.2640     1.4470 n1         1 OLW      -0.453000
     24 H02          3.7300    -1.9420     1.1500 h5         1 OLW       0.072100
     25 H04          6.8020     0.3610    -0.5750 h4         1 OLW       0.175000
     26 H05          7.7880    -2.0770     0.1960 h4         1 OLW       0.041100
     27 H15          1.6540     3.3360    -0.5070 ha         1 OLW       0.144000
     28 H16          4.0400     3.5260    -1.2330 h4         1 OLW       0.033100
     29 H17          0.5930     0.5630     1.6720 hc         1 OLW       0.072200
     30 H17A         0.0550     2.0470     0.8810 hc         1 OLW       0.072200
     31 H18         -0.2660     0.8310    -1.2490 h1         1 OLW       0.039700
     32 H18A         0.3470    -0.6510    -0.5290 h1         1 OLW       0.039700
     33 HN19        -1.5160    -0.4890     1.0300 hn         1 OLW       0.416000
     34 H2          -3.9570     1.2410     0.2110 ha         1 OLW       0.139000
     35 H20         -1.9630    -1.7040    -1.0200 h1         1 OLW       0.041700
     36 H20A        -2.3560    -0.1530    -1.7350 h1         1 OLW       0.041700
     37 H4          -7.4750    -1.1340     0.8710 ha         1 OLW       0.126000
     38 H5          -6.2670    -3.1260     0.0420 ha         1 OLW       0.121000
     39 H6          -3.9290    -2.9340    -0.7030 ha         1 OLW       0.115000
@<TRIPOS>BOND
     1     1     2 2   
     2     1     5 1   
     3     2     3 1   
     4     2    24 1   
     5     3     4 1   
     6     3     8 1   
     7     4     5 2   
     8     4    25 1   
     9     5    26 1   
    10     6    16 ar  
    11     6    17 1   
    12     6    21 ar  
    13     7     8 ar  
    14     7    12 ar  
    15     8     9 ar  
    16     9    10 ar  
    17    10    11 ar  
    18    10    13 1   
    19    11    12 ar  
    20    11    27 1   
    21    12    28 1   
    22    13    14 1   
    23    13    29 1   
    24    13    30 1   
    25    14    15 1   
    26    14    31 1   
    27    14    32 1   
    28    15    17 1   
    29    15    33 1   
    30    16    18 ar  
    31    16    34 1   
    32    17    35 1   
    33    17    36 1   
    34    18    19 ar  
    35    18    22 1   
    36    19    20 ar  
    37    19    37 1   
    38    20    21 ar  
    39    20    38 1   
    40    21    39 1   
    41    22    23 3   
@<TRIPOS>SUBSTRUCTURE
     1 OLW         1 TEMP              0 ****  ****    0 ROOT
