@<TRIPOS>MOLECULE
OLX
   29    30     1     0     0
SMALL
abcg2


@<TRIPOS>ATOM
      1 C4           8.9300    -1.5830    20.9240 ca         1 OLX      -0.154300
      2 C5           8.1150    -0.4750    20.6800 ca         1 OLX       0.020000
      3 C6           8.4910     0.7950    21.0770 ca         1 OLX      -0.127000
      4 C7           9.7110     0.9280    21.7460 ca         1 OLX      -0.075000
      5 C10          6.9330    -2.2190    19.8050 c          1 OLX       0.537000
      6 O3           8.0610    -3.8220    21.2920 oh         1 OLX      -0.650000
      7 C9           6.2160     0.8240    18.3040 c          1 OLX       0.705000
      8 O2           6.0350    -2.8690    19.2890 o          1 OLX      -0.558000
      9 N            6.9340    -0.8760    20.0280 n          1 OLX      -0.156400
     10 O1           7.2310     0.5000    17.6500 o          1 OLX      -0.719500
     11 O            5.3860     1.7260    18.0360 o          1 OLX      -0.719500
     12 C3          10.1330    -1.4360    21.5810 ca         1 OLX      -0.044000
     13 C11          8.2650    -2.7930    20.3350 c5         1 OLX       0.134600
     14 C2          10.5400    -0.1630    22.0100 ca         1 OLX      -0.146300
     15 C1          11.8730     0.0260    22.6890 c3         1 OLX      -0.017100
     16 C           13.0150     0.2350    21.6860 c3         1 OLX      -0.087100
     17 H1           7.8690     1.6580    20.8850 ha         1 OLX       0.140000
     18 H2          10.0230     1.9140    22.0700 ha         1 OLX       0.099000
     19 H3           5.6690     0.7280    20.4010 h1         1 OLX       0.047700
     20 H4           4.9980    -0.5670    19.4130 h1         1 OLX       0.047700
     21 H5           7.6290    -4.5620    20.8440 ho         1 OLX       0.448000
     22 H7          10.7640    -2.2970    21.7700 ha         1 OLX       0.105000
     23 H8           8.8300    -3.1750    19.4750 h1         1 OLX       0.065700
     24 H9          11.8200     0.8870    23.3590 hc         1 OLX       0.032700
     25 H10         12.0930    -0.8470    23.3080 hc         1 OLX       0.032700
     26 H11         13.9680     0.3650    22.2030 hc         1 OLX       0.030033
     27 H12         13.1040    -0.6230    21.0170 hc         1 OLX       0.030033
     28 H13         12.8340     1.1210    21.0750 hc         1 OLX       0.030033
     29 C8           5.8930     0.0260    19.5970 c3         1 OLX      -0.053000
@<TRIPOS>BOND
     1     1     2 ar  
     2     1    12 ar  
     3     1    13 1   
     4     2     3 ar  
     5     2     9 1   
     6     3     4 ar  
     7     3    17 1   
     8     4    14 ar  
     9     4    18 1   
    10     5     8 2   
    11     5     9 1   
    12     5    13 1   
    13     6    13 1   
    14     6    21 1   
    15     7    10 1   
    16     7    11 1   
    17     7    29 1   
    18     9    29 1   
    19    12    14 ar  
    20    12    22 1   
    21    13    23 1   
    22    14    15 1   
    23    15    16 1   
    24    15    24 1   
    25    15    25 1   
    26    16    26 1   
    27    16    27 1   
    28    16    28 1   
    29    19    29 1   
    30    20    29 1   
@<TRIPOS>SUBSTRUCTURE
     1 OLX         1 TEMP              0 ****  ****    0 ROOT
