@<TRIPOS>MOLECULE
OLX
   29    30     1     0     0
SMALL
No Charge or Current Charge


@<TRIPOS>ATOM
      1 C4           8.9160    -1.5910    20.9250 ca         1 OLX      -0.154300
      2 C5           8.1080    -0.5000    20.6670 ca         1 OLX       0.020000
      3 C6           8.5010     0.8020    21.0070 ca         1 OLX      -0.127000
      4 C7           9.7230     0.9730    21.6890 ca         1 OLX      -0.075000
      5 C10          6.9590    -2.3220    19.6980 c          1 OLX       0.537000
      6 O3           8.0590    -3.8400    21.3700 oh         1 OLX      -0.650000
      7 C9           6.1510     0.8750    18.3540 c          1 OLX       0.705000
      8 O2           6.0600    -2.9540    19.1470 o          1 OLX      -0.558000
      9 N            6.9860    -0.9280    19.9210 n          1 OLX      -0.156400
     10 O1           6.3900     0.3480    17.2770 o          1 OLX      -0.719500
     11 O            6.1390     2.0860    18.5240 o          1 OLX      -0.719500
     12 C3          10.1390    -1.4380    21.5950 ca         1 OLX      -0.044000
     13 C11          8.3040    -2.8550    20.3470 c5         1 OLX       0.134600
     14 C2          10.5410    -0.1420    21.9910 ca         1 OLX      -0.146300
     15 C1          11.8650     0.0560    22.7170 c3         1 OLX      -0.017100
     16 C           13.0330     0.2870    21.7410 c3         1 OLX      -0.087100
     17 H1           7.8820     1.6610    20.7590 ha         1 OLX       0.140000
     18 H2          10.0400     1.9740    21.9740 ha         1 OLX       0.099000
     19 H3           5.6200     0.5980    20.4290 h1         1 OLX       0.047700
     20 H4           4.9680    -0.6290    19.3310 h1         1 OLX       0.047700
     21 H5           7.5520    -4.5700    20.9480 ho         1 OLX       0.448000
     22 H7          10.7680    -2.3030    21.7930 ha         1 OLX       0.105000
     23 H8           8.9370    -3.2570    19.5440 h1         1 OLX       0.065700
     24 H9          11.7980     0.9110    23.4010 hc         1 OLX       0.032700
     25 H10         12.0900    -0.8180    23.3410 hc         1 OLX       0.032700
     26 H11         13.9700     0.4260    22.2920 hc         1 OLX       0.030033
     27 H12         13.1510    -0.5730    21.0710 hc         1 OLX       0.030033
     28 H13         12.8550     1.1810    21.1310 hc         1 OLX       0.030033
     29 C8           5.8590    -0.0330    19.5640 c3         1 OLX      -0.053000
@<TRIPOS>BOND
     1     1     2 ar  
     2     1    12 ar  
     3     1    13 1   
     4     2     3 ar  
     5     2     9 1   
     6     3     4 ar  
     7     3    17 1   
     8     4    14 ar  
     9     4    18 1   
    10     5     8 2   
    11     5     9 1   
    12     5    13 1   
    13     6    13 1   
    14     6    21 1   
    15     7    10 1   
    16     7    11 1   
    17     7    29 1   
    18     9    29 1   
    19    12    14 ar  
    20    12    22 1   
    21    13    23 1   
    22    14    15 1   
    23    15    16 1   
    24    15    24 1   
    25    15    25 1   
    26    16    26 1   
    27    16    27 1   
    28    16    28 1   
    29    19    29 1   
    30    20    29 1   
@<TRIPOS>SUBSTRUCTURE
     1 OLX         1 TEMP              0 ****  ****    0 ROOT
