@<TRIPOS>MOLECULE
OLY
  113   119     1     0     0
SMALL
abcg2


@<TRIPOS>ATOM
      1 C10         -0.4090     2.1090    -0.4860 c          1 OLY       0.599100
      2 C17         -1.0140     3.0640     2.4050 c3         1 OLY      -0.083400
      3 C21          3.5740    -2.5460     0.3930 ca         1 OLY       0.356300
      4 C22          4.6110    -3.1000    -0.3310 ca         1 OLY       0.279300
      5 C24          3.3310    -3.0710    -2.2390 ca         1 OLY       0.306300
      6 C26          4.9980    -2.5880     2.4450 c2         1 OLY       0.102900
      7 C28          5.9360    -3.4200     0.2880 c6         1 OLY      -0.056500
      8 C01         -1.3430     0.4470    -1.9550 c5         1 OLY       0.030700
      9 C02         -0.8210    -0.8930    -2.4850 c5         1 OLY      -0.087400
     10 C03          0.2230    -1.3280    -1.4630 c5         1 OLY       0.168300
     11 C04          0.8160    -0.0130    -0.9560 c5         1 OLY       0.081000
     12 C06         -2.5590     0.2760    -1.0460 c          1 OLY       0.581100
     13 C09         -4.9480     0.5210    -0.8630 cx         1 OLY      -0.057600
     14 C11          0.6080     2.4180     0.6170 c3         1 OLY       0.041700
     15 C14          3.0370     2.1480     0.6170 c          1 OLY       0.610100
     16 C16          0.1290     3.5520     1.5180 c3         1 OLY      -0.078400
     17 C19          2.2920    -2.4860    -1.4800 ca         1 OLY       0.532300
     18 C25          3.6800    -2.2130     1.8470 c6         1 OLY      -0.093500
     19 C27          6.0030    -3.1280     1.7540 c2         1 OLY      -0.350200
     20 C30          6.1940    -2.5610     4.4880 c3         1 OLY       0.145900
     21 C32         -5.4510    -0.7670    -0.2960 c          1 OLY       0.684100
     22 C38         -6.9360    -3.7550    -0.9010 cx         1 OLY      -0.403000
     23 C39         -7.5670    -4.9210    -0.1880 cx         1 OLY      -0.066900
     24 C40         -7.9740    -3.5280     0.1530 cx         1 OLY      -0.066900
     25 C41         -7.2360    -3.5020    -2.3560 c3         1 OLY      -0.041100
     26 C42         -5.1580     1.8430    -0.1230 cx         1 OLY      -0.029500
     27 C43         -5.7630     2.0120     1.2130 c2         1 OLY      -0.197200
     28 C44         -5.3150     2.8510     2.1500 c2         1 OLY      -0.185200
     29 C45         -4.0990     3.7210     2.0920 c3         1 OLY      -0.056200
     30 C46         -3.2550     3.6870     3.3740 c3         1 OLY      -0.071400
     31 C47         -5.9810     1.5130    -1.3220 cx         1 OLY      -0.110400
     32 C48         -1.8240     4.1570     3.1030 c3         1 OLY      -0.068400
     33 C49          4.3220     2.2900    -0.2030 c5         1 OLY       0.056400
     34 C54          4.4270     1.0230    -1.1070 c5         1 OLY      -0.080900
     35 C55          5.8620     0.5280    -0.9590 c5         1 OLY      -0.082900
     36 C56          6.1710     0.8310     0.5010 c5         1 OLY      -0.082900
     37 C57          5.5880     2.2290     0.6920 c5         1 OLY      -0.080900
     38 C58          4.3450     7.0040    -0.9950 c3         1 OLY       0.169900
     39 N05         -0.2450     0.9530    -1.1580 n          1 OLY      -0.395800
     40 N08         -3.7610     0.4390    -1.6480 ns         1 OLY      -0.485900
     41 N13          1.9150     2.6100     0.0330 ns         1 OLY      -0.499900
     42 N20          2.4150    -2.2520    -0.2040 nb         1 OLY      -0.733000
     43 N23          4.4620    -3.3590    -1.6360 nb         1 OLY      -0.634000
     44 N33         -4.9440    -1.8810    -0.9180 ns         1 OLY      -0.574300
     45 N50          4.2730     3.4720    -1.0420 ns         1 OLY      -0.509900
     46 O07         -2.4560    -0.0300     0.1250 o          1 OLY      -0.552100
     47 O12         -1.3540     2.8440    -0.7320 o          1 OLY      -0.603100
     48 O15          3.0300     1.5460     1.6790 o          1 OLY      -0.594100
     49 O18          1.1710    -2.1530    -2.1280 os         1 OLY      -0.454300
     50 O29          5.0130    -2.2970     3.7630 os         1 OLY      -0.338100
     51 O34         -6.2690    -0.8360     0.5920 o          1 OLY      -0.551100
     52 O36         -5.0810    -3.5900     0.9730 o          1 OLY      -0.524500
     53 O37         -4.3940    -4.2410    -1.3460 o          1 OLY      -0.524500
     54 O52          4.1280     4.9310     0.6870 o          1 OLY      -0.523000
     55 O53          4.3910     5.6490    -1.4330 os         1 OLY      -0.459100
     56 S35         -5.2500    -3.4680    -0.4620 s6         1 OLY       1.256800
     57 H171        -1.6970     2.4630     1.8010 hc         1 OLY       0.049200
     58 H172        -0.6130     2.3770     3.1580 hc         1 OLY       0.049200
     59 H281         6.1710    -4.4730     0.1050 hc         1 OLY       0.063200
     60 H1           6.7180    -2.8580    -0.2370 hc         1 OLY       0.063200
     61 H011        -1.5860     1.1200    -2.7800 h1         1 OLY       0.078700
     62 H021        -1.6100    -1.6310    -2.6340 hc         1 OLY       0.071700
     63 H022        -0.3370    -0.7280    -3.4490 hc         1 OLY       0.071700
     64 H031        -0.2330    -1.8780    -0.6350 h1         1 OLY       0.094700
     65 H041         1.1110    -0.0850     0.0880 h1         1 OLY       0.070700
     66 H042         1.6970     0.2590    -1.5420 h1         1 OLY       0.070700
     67 H111         0.6740     1.5230     1.2420 h1         1 OLY       0.095700
     68 H161        -0.1880     4.4080     0.9190 hc         1 OLY       0.059700
     69 H162         0.9710     3.8870     2.1280 hc         1 OLY       0.059700
     70 H251         3.5040    -1.1390     1.9770 hc         1 OLY       0.097700
     71 H2           2.8710    -2.7120     2.3910 hc         1 OLY       0.097700
     72 H271         6.9380    -3.3800     2.2390 ha         1 OLY       0.184000
     73 H303         7.0450    -1.9960     4.0960 h1         1 OLY       0.040033
     74 H302         6.0090    -2.2520     5.5140 h1         1 OLY       0.040033
     75 H301         6.4480    -3.6240     4.4780 h1         1 OLY       0.040033
     76 H311         2.9050    -2.4480    -4.2480 hc         1 OLY       0.055367
     77 H313         4.1040    -3.7410    -4.1040 hc         1 OLY       0.055367
     78 H312         2.3840    -4.0820    -3.8800 hc         1 OLY       0.055367
     79 H391        -8.2220    -5.5340    -0.7930 hc         1 OLY       0.091450
     80 H392        -6.9870    -5.4720     0.5410 hc         1 OLY       0.091450
     81 H401        -7.6680    -3.1300     1.1090 hc         1 OLY       0.091450
     82 H402        -8.9250    -3.1560    -0.2060 hc         1 OLY       0.091450
     83 H412        -8.2810    -3.7430    -2.5480 hc         1 OLY       0.047033
     84 H411        -7.0870    -2.4560    -2.6260 hc         1 OLY       0.047033
     85 H413        -6.6260    -4.1240    -3.0090 hc         1 OLY       0.047033
     86 H421        -4.3270     2.5090    -0.3260 hc         1 OLY       0.097700
     87 H431        -6.6740     1.4640     1.4150 ha         1 OLY       0.189000
     88 H441        -5.9030     2.9250     3.0620 ha         1 OLY       0.169000
     89 H451        -3.4740     3.4500     1.2400 hc         1 OLY       0.051700
     90 H452        -4.4050     4.7590     1.9160 hc         1 OLY       0.051700
     91 H462        -3.7300     4.3040     4.1400 hc         1 OLY       0.042200
     92 H461        -3.2270     2.6690     3.7770 hc         1 OLY       0.042200
     93 H472        -5.7850     2.0280    -2.2540 hc         1 OLY       0.083200
     94 H471        -7.0180     1.2410    -1.1660 hc         1 OLY       0.083200
     95 H481        -1.3340     4.4530     4.0340 hc         1 OLY       0.038700
     96 H482        -1.8590     5.0570     2.4790 hc         1 OLY       0.038700
     97 H542         3.7500     0.2500    -0.7380 hc         1 OLY       0.060700
     98 H541         4.1290     1.2270    -2.1370 hc         1 OLY       0.060700
     99 H551         5.9640    -0.5280    -1.2170 hc         1 OLY       0.052950
    100 H552         6.5340     1.0910    -1.6120 hc         1 OLY       0.052950
    101 H562         5.6710     0.1080     1.1500 hc         1 OLY       0.052950
    102 H561         7.2360     0.7930     0.7330 hc         1 OLY       0.052950
    103 H571         6.3050     2.9620     0.3180 hc         1 OLY       0.060700
    104 H572         5.3860     2.4740     1.7320 hc         1 OLY       0.060700
    105 H582         3.3730     7.2550    -0.5730 h1         1 OLY       0.050367
    106 H581         5.1220     7.2180    -0.2610 h1         1 OLY       0.050367
    107 H583         4.5160     7.6080    -1.8820 h1         1 OLY       0.050367
    108 H081        -3.7970     0.7490    -2.6070 hn         1 OLY       0.320500
    109 H131         1.9990     3.1590    -0.8080 hn         1 OLY       0.326500
    110 H331        -4.3410    -1.7710    -1.7250 hn         1 OLY       0.347500
    111 H501         4.4850     3.3770    -2.0230 hn         1 OLY       0.330500
    112 C31          3.1740    -3.3510    -3.6970 c3         1 OLY      -0.132400
    113 C51          4.2630     4.7090    -0.4970 c          1 OLY       0.626100
@<TRIPOS>BOND
     1     1    14 1   
     2     1    39 1   
     3     1    47 2   
     4     2    16 1   
     5     2    32 1   
     6     2    57 1   
     7     2    58 1   
     8     3     4 ar  
     9     3    18 1   
    10     3    42 ar  
    11     4     7 1   
    12     4    43 ar  
    13     5    17 ar  
    14     5    43 ar  
    15     5   112 1   
    16     6    18 1   
    17     6    19 2   
    18     6    50 1   
    19     7    19 1   
    20     7    59 1   
    21     7    60 1   
    22     8     9 1   
    23     8    12 1   
    24     8    39 1   
    25     8    61 1   
    26     9    10 1   
    27     9    62 1   
    28     9    63 1   
    29    10    11 1   
    30    10    49 1   
    31    10    64 1   
    32    11    39 1   
    33    11    65 1   
    34    11    66 1   
    35    12    40 1   
    36    12    46 2   
    37    13    21 1   
    38    13    26 1   
    39    13    31 1   
    40    13    40 1   
    41    14    16 1   
    42    14    41 1   
    43    14    67 1   
    44    15    33 1   
    45    15    41 1   
    46    15    48 2   
    47    16    68 1   
    48    16    69 1   
    49    17    42 ar  
    50    17    49 1   
    51    18    70 1   
    52    18    71 1   
    53    19    72 1   
    54    20    50 1   
    55    20    73 1   
    56    20    74 1   
    57    20    75 1   
    58    21    44 1   
    59    21    51 2   
    60    22    23 1   
    61    22    24 1   
    62    22    25 1   
    63    22    56 1   
    64    23    24 1   
    65    23    79 1   
    66    23    80 1   
    67    24    81 1   
    68    24    82 1   
    69    25    83 1   
    70    25    84 1   
    71    25    85 1   
    72    26    27 1   
    73    26    31 1   
    74    26    86 1   
    75    27    28 2   
    76    27    87 1   
    77    28    29 1   
    78    28    88 1   
    79    29    30 1   
    80    29    89 1   
    81    29    90 1   
    82    30    32 1   
    83    30    91 1   
    84    30    92 1   
    85    31    93 1   
    86    31    94 1   
    87    32    95 1   
    88    32    96 1   
    89    33    34 1   
    90    33    37 1   
    91    33    45 1   
    92    34    35 1   
    93    34    97 1   
    94    34    98 1   
    95    35    36 1   
    96    35    99 1   
    97    35   100 1   
    98    36    37 1   
    99    36   101 1   
   100    36   102 1   
   101    37   103 1   
   102    37   104 1   
   103    38    55 1   
   104    38   105 1   
   105    38   106 1   
   106    38   107 1   
   107    40   108 1   
   108    41   109 1   
   109    44    56 1   
   110    44   110 1   
   111    45   111 1   
   112    45   113 1   
   113    52    56 2   
   114    53    56 2   
   115    54   113 2   
   116    55   113 1   
   117    76   112 1   
   118    77   112 1   
   119    78   112 1   
@<TRIPOS>SUBSTRUCTURE
     1 OLY         1 TEMP              0 ****  ****    0 ROOT
