@<TRIPOS>MOLECULE
OLY
  113   119     1     0     0
SMALL
No Charge or Current Charge


@<TRIPOS>ATOM
      1 C10         -0.0510     2.1660    -0.8890 c          1 OLY       0.599100
      2 C17         -1.3950     2.7070     1.8770 c3         1 OLY      -0.083400
      3 C21          3.7320    -2.7760    -0.1070 ca         1 OLY       0.356300
      4 C22          4.9060    -3.0740    -0.8550 ca         1 OLY       0.279300
      5 C24          3.7280    -2.8010    -2.8110 ca         1 OLY       0.306300
      6 C26          5.1320    -2.7200     2.0350 c2         1 OLY       0.102900
      7 C28          6.2340    -3.3610    -0.1590 c6         1 OLY      -0.056500
      8 C01         -1.2170     0.4400    -2.3080 c5         1 OLY       0.030700
      9 C02         -0.6550    -0.8550    -2.9790 c5         1 OLY      -0.087400
     10 C03          0.4610    -1.3190    -2.0000 c5         1 OLY       0.168300
     11 C04          1.1310     0.0350    -1.6200 c5         1 OLY       0.081000
     12 C06         -2.3770     0.0910    -1.3210 c          1 OLY       0.581100
     13 C09         -4.8780     0.3120    -1.2090 cx         1 OLY      -0.057600
     14 C11          0.6920     2.2190     0.4820 c3         1 OLY       0.041700
     15 C14          3.1280     1.8270     1.0190 c          1 OLY       0.610100
     16 C16          0.0300     3.1870     1.4980 c3         1 OLY      -0.078400
     17 C19          2.5420    -2.4750    -2.0640 ca         1 OLY       0.532300
     18 C25          3.7440    -2.7160     1.4140 c6         1 OLY      -0.093500
     19 C27          6.2400    -3.0110     1.3260 c2         1 OLY      -0.350200
     20 C30          6.3640    -2.3350     4.1200 c3         1 OLY       0.145900
     21 C32         -5.1710    -0.8660    -0.2660 c          1 OLY       0.684100
     22 C38         -7.5050    -3.3270     0.2260 cx         1 OLY      -0.403000
     23 C39         -8.0530    -4.2580     1.2940 cx         1 OLY      -0.066900
     24 C40         -7.8150    -2.7990     1.6170 cx         1 OLY      -0.066900
     25 C41         -8.3960    -2.9230    -0.9540 c3         1 OLY      -0.041100
     26 C42         -5.4610     1.6910    -0.9260 cx         1 OLY      -0.029500
     27 C43         -6.2230     1.9940     0.3270 c2         1 OLY      -0.197200
     28 C44         -5.8260     2.8050     1.3270 c2         1 OLY      -0.185200
     29 C45         -4.5210     3.5810     1.4110 c3         1 OLY      -0.056200
     30 C46         -3.7460     3.3240     2.7300 c3         1 OLY      -0.071400
     31 C47         -6.0710     0.8190    -1.9950 cx         1 OLY      -0.110400
     32 C48         -2.2490     3.7270     2.6660 c3         1 OLY      -0.068400
     33 C49          4.5700     2.1900     0.4740 c5         1 OLY       0.056400
     34 C54          5.1270     1.0030    -0.3960 c5         1 OLY      -0.080900
     35 C55          6.5300     0.7150     0.2080 c5         1 OLY      -0.082900
     36 C56          6.2900     1.0060     1.7080 c5         1 OLY      -0.082900
     37 C57          5.6340     2.4050     1.6100 c5         1 OLY      -0.080900
     38 C58          4.2150     6.9260    -0.6030 c3         1 OLY       0.169900
     39 N05         -0.0320     0.9380    -1.5690 n          1 OLY      -0.395800
     40 N08         -3.6050     0.3100    -1.9210 ns         1 OLY      -0.485900
     41 N13          2.1360     2.4670     0.2990 ns         1 OLY      -0.499900
     42 N20          2.5420    -2.4910    -0.7000 nb         1 OLY      -0.733000
     43 N23          4.9170    -3.0990    -2.2140 nb         1 OLY      -0.634000
     44 N33         -5.3240    -2.0390    -0.9300 ns         1 OLY      -0.574300
     45 N50          4.5890     3.3860    -0.4190 ns         1 OLY      -0.509900
     46 O07         -2.2550    -0.2660    -0.1580 o          1 OLY      -0.552100
     47 O12         -0.7420     3.0880    -1.3070 o          1 OLY      -0.603100
     48 O15          2.8730     1.0900     1.9620 o          1 OLY      -0.594100
     49 O18          1.3880    -2.1430    -2.7720 os         1 OLY      -0.454300
     50 O29          5.1370    -2.3970     3.3700 os         1 OLY      -0.338100
     51 O34         -5.2620    -0.7650     0.9480 o          1 OLY      -0.551100
     52 O36         -4.9050    -3.7540     0.9040 o          1 OLY      -0.524500
     53 O37         -5.6720    -4.4880    -1.4060 o          1 OLY      -0.524500
     54 O52          3.9650     4.8860     1.2310 o          1 OLY      -0.523000
     55 O53          4.4810     5.5440    -0.9060 os         1 OLY      -0.459100
     56 S35         -5.7130    -3.5270    -0.2990 s6         1 OLY       1.256800
     57 H171        -1.9330     2.4300     0.9660 hc         1 OLY       0.049200
     58 H172        -1.3160     1.7830     2.4640 hc         1 OLY       0.049200
     59 H281         6.4860    -4.4230    -0.2840 hc         1 OLY       0.063200
     60 H1           7.0300    -2.7960    -0.6620 hc         1 OLY       0.063200
     61 H011        -1.5720     1.1670    -3.0510 h1         1 OLY       0.078700
     62 H021        -1.4220    -1.6210    -3.1360 hc         1 OLY       0.071700
     63 H022        -0.2320    -0.6190    -3.9630 hc         1 OLY       0.071700
     64 H031         0.0560    -1.8580    -1.1300 h1         1 OLY       0.094700
     65 H041         1.6530    -0.0330    -0.6580 h1         1 OLY       0.070700
     66 H042         1.8450     0.3680    -2.3850 h1         1 OLY       0.070700
     67 H111         0.5820     1.2100     0.9020 h1         1 OLY       0.095700
     68 H161        -0.0080     4.1970     1.0710 hc         1 OLY       0.059700
     69 H162         0.6430     3.2460     2.4060 hc         1 OLY       0.059700
     70 H251         3.2190    -1.8070     1.7330 hc         1 OLY       0.097700
     71 H2           3.1680    -3.5600     1.8130 hc         1 OLY       0.097700
     72 H271         7.2290    -3.0090     1.7850 ha         1 OLY       0.184000
     73 H303         7.0420    -1.5830     3.6970 h1         1 OLY       0.040033
     74 H302         6.1590    -2.0590     5.1610 h1         1 OLY       0.040033
     75 H301         6.8710    -3.3090     4.1210 h1         1 OLY       0.040033
     76 H311         3.5050    -1.8010    -4.7220 hc         1 OLY       0.055367
     77 H313         4.7130    -3.0950    -4.7390 hc         1 OLY       0.055367
     78 H312         2.9890    -3.4960    -4.7280 hc         1 OLY       0.055367
     79 H391        -9.0850    -4.5920     1.2070 hc         1 OLY       0.091450
     80 H392        -7.3820    -4.9880     1.7430 hc         1 OLY       0.091450
     81 H401        -6.9880    -2.5610     2.2840 hc         1 OLY       0.091450
     82 H402        -8.6870    -2.1610     1.7430 hc         1 OLY       0.091450
     83 H412        -9.4470    -2.8380    -0.6510 hc         1 OLY       0.047033
     84 H411        -8.0980    -1.9520    -1.3680 hc         1 OLY       0.047033
     85 H413        -8.3480    -3.6640    -1.7620 hc         1 OLY       0.047033
     86 H421        -4.8900     2.5400    -1.2960 hc         1 OLY       0.097700
     87 H431        -7.1940     1.5000     0.4070 ha         1 OLY       0.189000
     88 H441        -6.4780     2.9500     2.1910 ha         1 OLY       0.169000
     89 H451        -3.8810     3.3430     0.5560 hc         1 OLY       0.051700
     90 H452        -4.7260     4.6560     1.3330 hc         1 OLY       0.051700
     91 H462        -4.2360     3.8800     3.5390 hc         1 OLY       0.042200
     92 H461        -3.8160     2.2610     2.9940 hc         1 OLY       0.042200
     93 H472        -5.9200     1.1130    -3.0300 hc         1 OLY       0.083200
     94 H471        -7.0440     0.3760    -1.7940 hc         1 OLY       0.083200
     95 H481        -1.8510     3.8090     3.6850 hc         1 OLY       0.038700
     96 H482        -2.1630     4.7210     2.2100 hc         1 OLY       0.038700
     97 H542         4.4900     0.1160    -0.3000 hc         1 OLY       0.060700
     98 H541         5.1790     1.2230    -1.4690 hc         1 OLY       0.060700
     99 H551         6.8580    -0.3150     0.0270 hc         1 OLY       0.052950
    100 H552         7.2950     1.3790    -0.2150 hc         1 OLY       0.052950
    101 H562         5.6240     0.2670     2.1700 hc         1 OLY       0.052950
    102 H561         7.2210     1.0200     2.2870 hc         1 OLY       0.052950
    103 H571         6.3850     3.1590     1.3420 hc         1 OLY       0.060700
    104 H572         5.1840     2.7230     2.5580 hc         1 OLY       0.060700
    105 H582         3.1790     7.0610    -0.2670 h1         1 OLY       0.050367
    106 H581         4.8860     7.2900     0.1860 h1         1 OLY       0.050367
    107 H583         4.3680     7.5490    -1.4930 h1         1 OLY       0.050367
    108 H081        -3.5840     0.5990    -2.8930 hn         1 OLY       0.320500
    109 H131         2.4460     3.0850    -0.4420 hn         1 OLY       0.326500
    110 H331        -5.2450    -2.0550    -1.9300 hn         1 OLY       0.347500
    111 H501         4.8870     3.3640    -1.3870 hn         1 OLY       0.330500
    112 C31          3.7380    -2.7990    -4.3340 c3         1 OLY      -0.132400
    113 C51          4.3400     4.6370     0.0970 c          1 OLY       0.626100
@<TRIPOS>BOND
     1     1    14 1   
     2     1    39 1   
     3     1    47 2   
     4     2    16 1   
     5     2    32 1   
     6     2    57 1   
     7     2    58 1   
     8     3     4 ar  
     9     3    18 1   
    10     3    42 ar  
    11     4     7 1   
    12     4    43 ar  
    13     5    17 ar  
    14     5    43 ar  
    15     5   112 1   
    16     6    18 1   
    17     6    19 2   
    18     6    50 1   
    19     7    19 1   
    20     7    59 1   
    21     7    60 1   
    22     8     9 1   
    23     8    12 1   
    24     8    39 1   
    25     8    61 1   
    26     9    10 1   
    27     9    62 1   
    28     9    63 1   
    29    10    11 1   
    30    10    49 1   
    31    10    64 1   
    32    11    39 1   
    33    11    65 1   
    34    11    66 1   
    35    12    40 1   
    36    12    46 2   
    37    13    21 1   
    38    13    26 1   
    39    13    31 1   
    40    13    40 1   
    41    14    16 1   
    42    14    41 1   
    43    14    67 1   
    44    15    33 1   
    45    15    41 1   
    46    15    48 2   
    47    16    68 1   
    48    16    69 1   
    49    17    42 ar  
    50    17    49 1   
    51    18    70 1   
    52    18    71 1   
    53    19    72 1   
    54    20    50 1   
    55    20    73 1   
    56    20    74 1   
    57    20    75 1   
    58    21    44 1   
    59    21    51 2   
    60    22    23 1   
    61    22    24 1   
    62    22    25 1   
    63    22    56 1   
    64    23    24 1   
    65    23    79 1   
    66    23    80 1   
    67    24    81 1   
    68    24    82 1   
    69    25    83 1   
    70    25    84 1   
    71    25    85 1   
    72    26    27 1   
    73    26    31 1   
    74    26    86 1   
    75    27    28 2   
    76    27    87 1   
    77    28    29 1   
    78    28    88 1   
    79    29    30 1   
    80    29    89 1   
    81    29    90 1   
    82    30    32 1   
    83    30    91 1   
    84    30    92 1   
    85    31    93 1   
    86    31    94 1   
    87    32    95 1   
    88    32    96 1   
    89    33    34 1   
    90    33    37 1   
    91    33    45 1   
    92    34    35 1   
    93    34    97 1   
    94    34    98 1   
    95    35    36 1   
    96    35    99 1   
    97    35   100 1   
    98    36    37 1   
    99    36   101 1   
   100    36   102 1   
   101    37   103 1   
   102    37   104 1   
   103    38    55 1   
   104    38   105 1   
   105    38   106 1   
   106    38   107 1   
   107    40   108 1   
   108    41   109 1   
   109    44    56 1   
   110    44   110 1   
   111    45   111 1   
   112    45   113 1   
   113    52    56 2   
   114    53    56 2   
   115    54   113 2   
   116    55   113 1   
   117    76   112 1   
   118    77   112 1   
   119    78   112 1   
@<TRIPOS>SUBSTRUCTURE
     1 OLY         1 TEMP              0 ****  ****    0 ROOT
