@<TRIPOS>MOLECULE
OLZ
   21    20     1     0     0
SMALL
bcc


@<TRIPOS>ATOM
      1 OXT         32.9780    17.6760    23.1450 o          1 OLZ      -0.835800
      2 C           33.2570    17.0060    22.1290 c          1 OLZ       0.905600
      3 O           34.3740    16.5580    21.8120 o          1 OLZ      -0.835800
      4 CA          32.0730    16.7220    21.1590 c3         1 OLZ       0.007500
      5 N           32.4010    15.9440    19.9730 n8         1 OLZ      -0.873800
      6 CB          30.9390    16.0550    21.9240 c3         1 OLZ       0.152400
      7 OG          29.7930    15.9530    21.1140 os         1 OLZ      -0.412600
      8 CD          28.7190    15.3140    21.7530 c3         1 OLZ       0.100400
      9 CE          27.5850    15.1410    20.7570 c3         1 OLZ       0.148800
     10 NZ          27.8810    14.3100    19.6020 n8         1 OLZ      -0.892800
     11 HA          31.7050    17.6990    20.8200 h1         1 OLZ       0.050700
     12 HN          33.1250    16.4350    19.4630 hn         1 OLZ       0.322800
     13 HNA         32.8510    15.0860    20.2730 hn         1 OLZ       0.322800
     14 HB          31.2580    15.0530    22.2580 h1         1 OLZ       0.022700
     15 HBA         30.7190    16.6350    22.8280 h1         1 OLZ       0.022700
     16 HD          29.0240    14.3280    22.1370 h1         1 OLZ       0.009700
     17 HDA         28.3690    15.8970    22.6190 h1         1 OLZ       0.009700
     18 HE          26.7320    14.7120    21.2890 h1         1 OLZ       0.043200
     19 HEA         27.2630    16.1250    20.4060 h1         1 OLZ       0.043200
     20 HNZ         28.7070    14.6660    19.1370 hn         1 OLZ       0.343800
     21 HNZA        28.1240    13.3770    19.9130 hn         1 OLZ       0.343800
@<TRIPOS>BOND
     1     1     2 1   
     2     2     3 1   
     3     2     4 1   
     4     4     5 1   
     5     4     6 1   
     6     4    11 1   
     7     5    12 1   
     8     5    13 1   
     9     6     7 1   
    10     6    14 1   
    11     6    15 1   
    12     7     8 1   
    13     8     9 1   
    14     8    16 1   
    15     8    17 1   
    16     9    10 1   
    17     9    18 1   
    18     9    19 1   
    19    10    20 1   
    20    10    21 1   
@<TRIPOS>SUBSTRUCTURE
     1 OLZ         1 TEMP              0 ****  ****    0 ROOT
