@<TRIPOS>MOLECULE
OLZ
   21    20     1     0     0
SMALL
No Charge or Current Charge


@<TRIPOS>ATOM
      1 OXT         33.3950    18.3000    22.3950 o          1 OLZ      -0.730500
      2 C           33.2240    17.1120    22.1540 c          1 OLZ       0.695000
      3 O           33.9710    16.2340    22.5650 o          1 OLZ      -0.730500
      4 CA          32.0740    16.7110    21.1530 c3         1 OLZ       0.007500
      5 N           32.5160    15.9610    19.9040 n8         1 OLZ      -0.984200
      6 CB          30.9720    15.9630    21.9580 c3         1 OLZ       0.175600
      7 OG          29.7850    15.8460    21.1480 os         1 OLZ      -0.459000
      8 CD          28.6870    15.1700    21.7940 c3         1 OLZ       0.123600
      9 CE          27.4830    15.1180    20.8130 c3         1 OLZ       0.148800
     10 NZ          27.8210    14.4740    19.5190 n8         1 OLZ      -1.003200
     11 HA          31.6290    17.6570    20.8120 h1         1 OLZ       0.050700
     12 HN          33.2280    16.5160    19.4150 hn         1 OLZ       0.378000
     13 HNA         33.0300    15.1210    20.1960 hn         1 OLZ       0.378000
     14 HB          31.3400    14.9720    22.2570 h1         1 OLZ       0.022700
     15 HBA         30.7490    16.5310    22.8710 h1         1 OLZ       0.022700
     16 HD          28.9760    14.1480    22.0740 h1         1 OLZ       0.009700
     17 HDA         28.3870    15.7030    22.7050 h1         1 OLZ       0.009700
     18 HE          26.6550    14.5670    21.2810 h1         1 OLZ       0.043200
     19 HEA         27.1400    16.1430    20.6160 h1         1 OLZ       0.043200
     20 HNZ         28.6770    14.9300    19.1770 hn         1 OLZ       0.399000
     21 HNZA        28.1370    13.5150    19.7040 hn         1 OLZ       0.399000
@<TRIPOS>BOND
     1     1     2 1   
     2     2     3 1   
     3     2     4 1   
     4     4     5 1   
     5     4     6 1   
     6     4    11 1   
     7     5    12 1   
     8     5    13 1   
     9     6     7 1   
    10     6    14 1   
    11     6    15 1   
    12     7     8 1   
    13     8     9 1   
    14     8    16 1   
    15     8    17 1   
    16     9    10 1   
    17     9    18 1   
    18     9    19 1   
    19    10    20 1   
    20    10    21 1   
@<TRIPOS>SUBSTRUCTURE
     1 OLZ         1 TEMP              0 ****  ****    0 ROOT
