@<TRIPOS>MOLECULE
OM0
   24    24     1     0     0
SMALL
abcg2


@<TRIPOS>ATOM
      1 O6          77.1210    19.8240    -9.4940 oh         1 OM0      -0.660000
      2 C6          76.1030    18.9910    -8.9850 c3         1 OM0       0.200800
      3 C5          75.1140    19.8190    -8.2040 c2         1 OM0      -0.058400
      4 C5A         74.6340    19.5060    -7.0010 c2         1 OM0      -0.061500
      5 BR5         75.0710    17.8690    -6.1310 br         1 OM0      -0.080700
      6 C1          73.6790    20.3410    -6.2020 c6         1 OM0       0.194500
      7 C2          73.6670    21.7780    -6.7300 c6         1 OM0       0.097300
      8 O2          72.6030    22.5010    -6.1560 oh         1 OM0      -0.727000
      9 C3          73.4870    21.7690    -8.2350 c6         1 OM0       0.143300
     10 O3          73.4020    23.0660    -8.7730 oh         1 OM0      -0.727000
     11 C4          74.6910    21.1040    -8.8870 c6         1 OM0       0.213500
     12 O4          74.4180    20.7940   -10.2350 oh         1 OM0      -0.715000
     13 H1          77.2570    19.6120   -10.4200 ho         1 OM0       0.450000
     14 H2          75.5660    18.4680    -9.7820 h1         1 OM0       0.055700
     15 H3          76.5420    18.2190    -8.3500 h1         1 OM0       0.055700
     16 H4          74.0330    20.3770    -5.1610 h1         1 OM0       0.046700
     17 H6          74.6370    22.2370    -6.4900 h1         1 OM0       0.055700
     18 H7          72.8670    22.8040    -5.2820 ho         1 OM0       0.513000
     19 H8          72.5940    21.1780    -8.4850 h1         1 OM0       0.073700
     20 H9          72.6150    23.4910    -8.4160 ho         1 OM0       0.524000
     21 H10         75.5370    21.8030    -8.8130 h1         1 OM0       0.067700
     22 H11         74.4710    21.6070   -10.7470 ho         1 OM0       0.520000
     23 O1          72.4100    19.7380    -6.2710 oh         1 OM0      -0.697000
     24 H5          71.7960    20.3020    -5.7870 ho         1 OM0       0.515000
@<TRIPOS>BOND
     1     1     2 1   
     2     1    13 1   
     3     2     3 1   
     4     2    14 1   
     5     2    15 1   
     6     3     4 2   
     7     3    11 1   
     8     4     5 1   
     9     4     6 1   
    10     6     7 1   
    11     6    16 1   
    12     6    23 1   
    13     7     8 1   
    14     7     9 1   
    15     7    17 1   
    16     8    18 1   
    17     9    10 1   
    18     9    11 1   
    19     9    19 1   
    20    10    20 1   
    21    11    12 1   
    22    11    21 1   
    23    12    22 1   
    24    23    24 1   
@<TRIPOS>SUBSTRUCTURE
     1 OM0         1 TEMP              0 ****  ****    0 ROOT
