@<TRIPOS>MOLECULE
OM0
   24    24     1     0     0
SMALL
No Charge or Current Charge


@<TRIPOS>ATOM
      1 O6          76.9470    19.5030    -9.9280 oh         1 OM0      -0.660000
      2 C6          76.1820    18.8150    -8.9330 c3         1 OM0       0.200800
      3 C5          75.2080    19.7480    -8.2020 c2         1 OM0      -0.058400
      4 C5A         74.6740    19.4250    -6.9990 c2         1 OM0      -0.061500
      5 Br5         75.0550    17.7660    -6.1150 br         1 OM0      -0.080700
      6 C1          73.7110    20.3170    -6.2090 c6         1 OM0       0.194500
      7 C2          73.6440    21.7710    -6.7620 c6         1 OM0       0.097300
      8 O2          72.4870    22.4610    -6.2260 oh         1 OM0      -0.727000
      9 C3          73.5760    21.7300    -8.3090 c6         1 OM0       0.143300
     10 O3          73.3700    23.0570    -8.8280 oh         1 OM0      -0.727000
     11 C4          74.8830    21.1030    -8.8710 c6         1 OM0       0.213500
     12 O4          74.7610    21.0020   -10.3020 oh         1 OM0      -0.715000
     13 H1          76.2820    20.1080   -10.3510 ho         1 OM0       0.450000
     14 H2          75.6060    18.0030    -9.3960 h1         1 OM0       0.055700
     15 H3          76.8660    18.3530    -8.2080 h1         1 OM0       0.055700
     16 H4          74.0530    20.3650    -5.1640 h1         1 OM0       0.046700
     17 H6          74.5680    22.2950    -6.4710 h1         1 OM0       0.055700
     18 H7          72.7550    22.8670    -5.3650 ho         1 OM0       0.513000
     19 H8          72.7330    21.0830    -8.5990 h1         1 OM0       0.073700
     20 H9          72.7720    23.4820    -8.1640 ho         1 OM0       0.524000
     21 H10         75.7070    21.7910    -8.6240 h1         1 OM0       0.067700
     22 H11         74.2680    21.8200   -10.5610 ho         1 OM0       0.520000
     23 O1          72.3920    19.7650    -6.2610 oh         1 OM0      -0.697000
     24 H5          71.8170    20.5670    -6.1860 ho         1 OM0       0.515000
@<TRIPOS>BOND
     1     1     2 1   
     2     1    13 1   
     3     2     3 1   
     4     2    14 1   
     5     2    15 1   
     6     3     4 2   
     7     3    11 1   
     8     4     5 1   
     9     4     6 1   
    10     6     7 1   
    11     6    16 1   
    12     6    23 1   
    13     7     8 1   
    14     7     9 1   
    15     7    17 1   
    16     8    18 1   
    17     9    10 1   
    18     9    11 1   
    19     9    19 1   
    20    10    20 1   
    21    11    12 1   
    22    11    21 1   
    23    12    22 1   
    24    23    24 1   
@<TRIPOS>SUBSTRUCTURE
     1 OM0         1 TEMP              0 ****  ****    0 ROOT
