@<TRIPOS>MOLECULE
OM1
   57    60     1     0     0
SMALL
No Charge or Current Charge


@<TRIPOS>ATOM
      1 C15          1.3840    -3.9700    -1.7320 ca         1 OM1      -0.093000
      2 C16          0.3320    -4.7020    -1.1680 ca         1 OM1      -0.084000
      3 C14          1.6690    -2.6770    -1.2680 ca         1 OM1      -0.090000
      4 C17         -0.4320    -4.1400    -0.1360 ca         1 OM1      -0.074000
      5 C23         -3.4630     1.7430     1.8880 ca         1 OM1      -0.100000
      6 C6           4.9640     1.5370    -1.2370 ca         1 OM1      -0.055000
      7 C10          5.5020     0.8300     1.0270 ca         1 OM1      -0.055000
      8 C24         -4.0490     2.8950     1.3270 ca         1 OM1      -0.112000
      9 C7           6.3350     1.6200    -1.5340 ca         1 OM1      -0.176000
     10 C9           6.8740     0.9120     0.7290 ca         1 OM1      -0.176000
     11 C13          0.9070    -2.0850    -0.2280 ca         1 OM1      -0.139600
     12 C30         -4.4180     0.3530     0.0950 ca         1 OM1      -0.122600
     13 C5           4.5420     1.1430     0.0460 ca         1 OM1      -0.166300
     14 C18         -0.1590    -2.8440     0.3440 ca         1 OM1      -0.086300
     15 C22         -3.6410     0.4730     1.2850 ca         1 OM1      -0.134300
     16 C25         -4.8120     2.7450     0.1660 ca         1 OM1       0.062100
     17 C29         -4.9910     1.5250    -0.4270 ca         1 OM1       0.088100
     18 C8           7.2950     1.3100    -0.5580 ca         1 OM1       0.157100
     19 C2           1.2430    -0.6700     0.2190 c          1 OM1       0.609700
     20 C27         -6.1430     3.0260    -1.5720 c5         1 OM1       0.365600
     21 C4           3.0600     1.0480     0.3680 c3         1 OM1       0.156300
     22 C19         -1.0130    -2.3450     1.5010 c3         1 OM1       0.158900
     23 C21         -2.9910    -0.7360     1.9300 c3         1 OM1       0.172900
     24 N3           2.5480    -0.2790     0.0460 ns         1 OM1      -0.482900
     25 N20         -1.8930    -1.2220     1.0260 ny         1 OM1      -0.892000
     26 O33         -3.6350    -1.5260    -1.0540 o          1 OM1      -0.659500
     27 O1           0.4070     0.1160     0.6460 o          1 OM1      -0.647100
     28 O32         -5.7580    -1.4160    -0.6620 o          1 OM1      -0.659500
     29 O26         -5.4220     3.7490    -0.5140 os         1 OM1      -0.347100
     30 O28         -5.7290     1.6160    -1.5640 os         1 OM1      -0.301100
     31 O11          8.6260     1.4100    -0.9090 os         1 OM1      -0.337100
     32 H15          1.9760    -4.4020    -2.5360 ha         1 OM1       0.126000
     33 H16          0.1090    -5.7040    -1.5280 ha         1 OM1       0.130000
     34 H14          2.4760    -2.1290    -1.7510 ha         1 OM1       0.123000
     35 H17         -1.2420    -4.7220     0.3000 ha         1 OM1       0.137000
     36 H23         -2.8650     1.8360     2.7930 ha         1 OM1       0.109000
     37 H24         -3.9110     3.8740     1.7800 ha         1 OM1       0.132000
     38 H6           4.2310     1.7780    -2.0050 ha         1 OM1       0.116000
     39 H7           6.6560     1.9250    -2.5270 ha         1 OM1       0.127500
     40 H10          5.1860     0.5200     2.0210 ha         1 OM1       0.116000
     41 H9           7.5910     0.6650     1.5060 ha         1 OM1       0.127500
     42 H41C         2.8930     1.2470     1.4350 h1         1 OM1       0.060700
     43 H42C         2.5020     1.7970    -0.2090 h1         1 OM1       0.060700
     44 H191        -1.6490    -3.1490     1.8810 hx         1 OM1       0.077200
     45 H192        -0.3870    -1.9840     2.3220 hx         1 OM1       0.077200
     46 H211        -2.5600    -0.4750     2.9010 hx         1 OM1       0.072700
     47 H212        -3.7160    -1.5420     2.0750 hx         1 OM1       0.072700
     48 H3           3.1960    -0.9730    -0.2990 hn         1 OM1       0.327500
     49 H271        -7.2190     3.0800    -1.3690 h2         1 OM1       0.063700
     50 H272        -5.9210     3.4740    -2.5480 h2         1 OM1       0.063700
     51 H121         9.6400     1.7780     0.8890 h1         1 OM1       0.043700
     52 H122         9.6280     0.0740     0.3600 h1         1 OM1       0.043700
     53 H123        10.6630     1.2570    -0.4660 h1         1 OM1       0.043700
     54 H20         -1.2580    -0.4220     0.7890 hn         1 OM1       0.547000
     55 H220        -2.3160    -1.4680     0.0980 hn         1 OM1       0.547000
     56 C31         -4.6260    -0.9590    -0.6110 c          1 OM1       0.727600
     57 C12          9.6880     1.1140     0.0160 c3         1 OM1       0.146900
@<TRIPOS>BOND
     1     1     2 ar  
     2     1     3 ar  
     3     1    32 1   
     4     2     4 ar  
     5     2    33 1   
     6     3    11 ar  
     7     3    34 1   
     8     4    14 ar  
     9     4    35 1   
    10     5     8 ar  
    11     5    15 ar  
    12     5    36 1   
    13     6     9 ar  
    14     6    13 ar  
    15     6    38 1   
    16     7    10 ar  
    17     7    13 ar  
    18     7    40 1   
    19     8    16 ar  
    20     8    37 1   
    21     9    18 ar  
    22     9    39 1   
    23    10    18 ar  
    24    10    41 1   
    25    11    14 ar  
    26    11    19 1   
    27    12    15 ar  
    28    12    17 ar  
    29    12    56 1   
    30    13    21 1   
    31    14    22 1   
    32    15    23 1   
    33    16    17 ar  
    34    16    29 1   
    35    17    30 1   
    36    18    31 1   
    37    19    24 1   
    38    19    27 2   
    39    20    29 1   
    40    20    30 1   
    41    20    49 1   
    42    20    50 1   
    43    21    24 1   
    44    21    42 1   
    45    21    43 1   
    46    22    25 1   
    47    22    44 1   
    48    22    45 1   
    49    23    25 1   
    50    23    46 1   
    51    23    47 1   
    52    24    48 1   
    53    25    54 1   
    54    25    55 1   
    55    26    56 1   
    56    28    56 1   
    57    31    57 1   
    58    51    57 1   
    59    52    57 1   
    60    53    57 1   
@<TRIPOS>SUBSTRUCTURE
     1 OM1         1 TEMP              0 ****  ****    0 ROOT
