@<TRIPOS>MOLECULE
OM1
   57    60     1     0     0
SMALL
bcc


@<TRIPOS>ATOM
      1 C15          1.3060    -3.7460    -2.0870 ca         1 OM1      -0.111000
      2 C16          0.2670    -4.4050    -1.4500 ca         1 OM1      -0.102000
      3 C14          1.6820    -2.4810    -1.6610 ca         1 OM1      -0.108000
      4 C17         -0.3920    -3.7930    -0.3930 ca         1 OM1      -0.092000
      5 C23         -3.4090     2.0080     1.5230 ca         1 OM1      -0.118000
      6 C6           5.3250     1.3710    -1.1780 ca         1 OM1      -0.073000
      7 C10          5.6070     0.7460     1.1070 ca         1 OM1      -0.073000
      8 C24         -4.2790     2.9930     1.0460 ca         1 OM1      -0.130000
      9 C7           6.6950     1.3620    -1.3570 ca         1 OM1      -0.194000
     10 C9           6.9880     0.7290     0.9480 ca         1 OM1      -0.194000
     11 C13          1.0200    -1.8600    -0.6050 ca         1 OM1      -0.139600
     12 C30         -4.6520     0.2240     0.4180 ca         1 OM1      -0.122600
     13 C5           4.7570     1.0680     0.0590 ca         1 OM1      -0.166300
     14 C18         -0.0350    -2.5210     0.0390 ca         1 OM1      -0.086300
     15 C22         -3.5710     0.6640     1.2240 ca         1 OM1      -0.134300
     16 C25         -5.3140     2.5580     0.2610 ca         1 OM1       0.062100
     17 C29         -5.5020     1.2130    -0.0300 ca         1 OM1       0.088100
     18 C8           7.5410     1.0400    -0.2920 ca         1 OM1       0.157100
     19 C2           1.4130    -0.4730    -0.2090 c          1 OM1       0.676700
     20 C27         -6.9920     2.3980    -1.1750 c5         1 OM1       0.319200
     21 C4           3.2670     1.0580     0.2430 c3         1 OM1       0.156300
     22 C19         -0.7860    -1.9160     1.1930 c3         1 OM1       0.187100
     23 C21         -2.5710    -0.3020     1.7970 c3         1 OM1       0.201100
     24 N3           2.7250    -0.2410    -0.1270 ns         1 OM1      -0.549900
     25 N20         -1.7780    -0.9290     0.7160 ny         1 OM1      -0.838000
     26 O33         -3.9200    -1.9510    -0.2090 o          1 OM1      -0.764800
     27 O1           0.5750     0.4010     0.0100 o          1 OM1      -0.647100
     28 O32         -6.0980    -1.5790    -0.0120 o          1 OM1      -0.764800
     29 O26         -6.2910     3.2890    -0.3200 os         1 OM1      -0.323900
     30 O28         -6.6020     1.0840    -0.8060 os         1 OM1      -0.277900
     31 O11          8.8610     1.0620    -0.5510 os         1 OM1      -0.313900
     32 H15          1.8240    -4.2120    -2.9150 ha         1 OM1       0.144000
     33 H16         -0.0310    -5.3940    -1.7700 ha         1 OM1       0.148000
     34 H14          2.4850    -1.9650    -2.1720 ha         1 OM1       0.141000
     35 H17         -1.1950    -4.3180     0.1100 ha         1 OM1       0.155000
     36 H23         -2.5760     2.3110     2.1470 ha         1 OM1       0.127000
     37 H24         -4.1350     4.0380     1.2830 ha         1 OM1       0.150000
     38 H6           4.6880     1.6290    -2.0150 ha         1 OM1       0.134000
     39 H7           7.1220     1.6090    -2.3210 ha         1 OM1       0.145500
     40 H10          5.1940     0.5040     2.0790 ha         1 OM1       0.134000
     41 H9           7.6070     0.4770     1.7980 ha         1 OM1       0.145500
     42 H41C         3.0130     1.2850     1.2820 h1         1 OM1       0.060700
     43 H42C         2.8000     1.8260    -0.3760 h1         1 OM1       0.060700
     44 H191        -1.3290    -2.6890     1.7340 hx         1 OM1       0.077200
     45 H192        -0.1240    -1.4210     1.9040 hx         1 OM1       0.077200
     46 H211        -1.8910     0.2100     2.4760 hx         1 OM1       0.072700
     47 H212        -3.0480    -1.1100     2.3530 hx         1 OM1       0.072700
     48 H3           3.3650    -1.0170    -0.1950 hn         1 OM1       0.327500
     49 H271        -8.0660     2.5180    -1.0340 h2         1 OM1       0.063700
     50 H272        -6.7180     2.5900    -2.2180 h2         1 OM1       0.063700
     51 H121         9.6580     1.4610     1.3330 h1         1 OM1       0.043700
     52 H122         9.6280    -0.2550     0.8730 h1         1 OM1       0.043700
     53 H123        10.7610     0.8560     0.0840 h1         1 OM1       0.043700
     54 H20         -1.2670    -0.2140     0.1870 hn         1 OM1       0.491800
     55 H220        -2.5370    -1.3970     0.1120 hn         1 OM1       0.491800
     56 C31         -4.9220    -1.2220     0.0420 c          1 OM1       0.938200
     57 C12          9.7600     0.7630     0.4980 c3         1 OM1       0.123700
@<TRIPOS>BOND
     1     1     2 ar  
     2     1     3 ar  
     3     1    32 1   
     4     2     4 ar  
     5     2    33 1   
     6     3    11 ar  
     7     3    34 1   
     8     4    14 ar  
     9     4    35 1   
    10     5     8 ar  
    11     5    15 ar  
    12     5    36 1   
    13     6     9 ar  
    14     6    13 ar  
    15     6    38 1   
    16     7    10 ar  
    17     7    13 ar  
    18     7    40 1   
    19     8    16 ar  
    20     8    37 1   
    21     9    18 ar  
    22     9    39 1   
    23    10    18 ar  
    24    10    41 1   
    25    11    14 ar  
    26    11    19 1   
    27    12    15 ar  
    28    12    17 ar  
    29    12    56 1   
    30    13    21 1   
    31    14    22 1   
    32    15    23 1   
    33    16    17 ar  
    34    16    29 1   
    35    17    30 1   
    36    18    31 1   
    37    19    24 1   
    38    19    27 2   
    39    20    29 1   
    40    20    30 1   
    41    20    49 1   
    42    20    50 1   
    43    21    24 1   
    44    21    42 1   
    45    21    43 1   
    46    22    25 1   
    47    22    44 1   
    48    22    45 1   
    49    23    25 1   
    50    23    46 1   
    51    23    47 1   
    52    24    48 1   
    53    25    54 1   
    54    25    55 1   
    55    26    56 1   
    56    28    56 1   
    57    31    57 1   
    58    51    57 1   
    59    52    57 1   
    60    53    57 1   
@<TRIPOS>SUBSTRUCTURE
     1 OM1         1 TEMP              0 ****  ****    0 ROOT
