@<TRIPOS>MOLECULE
OM2
   55    57     1     0     0
SMALL
bcc


@<TRIPOS>ATOM
      1 C1          -4.9320    -2.0050     1.2680 ca         1 OM2      -0.112000
      2 C2          -4.2500    -3.1960     1.0830 ca         1 OM2      -0.119000
      3 C3          -4.4570    -0.8450     0.6740 ca         1 OM2      -0.114000
      4 C4          -3.1010    -3.2110     0.3060 ca         1 OM2      -0.127000
      5 C5           3.3540    -2.1340    -0.5140 ca         1 OM2      -0.128000
      6 C6           4.5810    -1.7620     0.0460 ca         1 OM2      -0.126000
      7 C7          -3.3030    -0.8510    -0.1060 ca         1 OM2      -0.106600
      8 C8           2.4240     0.1000    -0.2210 ca         1 OM2      -0.130600
      9 C9          -2.6110    -2.0560    -0.2960 ca         1 OM2      -0.082300
     10 C10          2.2970    -1.2470    -0.6460 ca         1 OM2      -0.126300
     11 C11          4.6910    -0.4600     0.4550 ca         1 OM2       0.061100
     12 C12          3.6480     0.4460     0.3120 ca         1 OM2       0.093100
     13 C13         -2.9050     0.4250    -0.7950 c          1 OM2       0.681700
     14 C15          5.4100     1.5230     1.1430 c5         1 OM2       0.321200
     15 C17         -3.7610     3.3980    -1.4310 c3         1 OM2      -0.106100
     16 C18          0.1030    -2.5170     0.8520 c3         1 OM2       0.117100
     17 C19         -1.3520    -2.1680    -1.1120 c3         1 OM2       0.185100
     18 C20          1.0430    -1.7590    -1.2960 c3         1 OM2       0.195100
     19 C21         -2.4620     3.7820     0.6850 c3         1 OM2      -0.087400
     20 C22         -2.6670     2.8600    -0.5150 c3         1 OM2       0.115700
     21 N23         -2.9920     1.5240    -0.0380 ns         1 OM2      -0.540900
     22 N24         -0.1310    -1.7390    -0.3750 nx         1 OM2      -0.775400
     23 O26         -2.5850     0.4380    -1.9770 o          1 OM2      -0.610100
     24 O28          5.7420     0.1440     1.0500 os         1 OM2      -0.323900
     25 O29          4.0320     1.6370     0.8240 os         1 OM2      -0.281900
     26 H1          -5.8350    -1.9760     1.8620 ha         1 OM2       0.141000
     27 H2          -4.6090    -4.1120     1.5340 ha         1 OM2       0.139000
     28 H3          -5.0160     0.0730     0.8000 ha         1 OM2       0.145000
     29 H4          -2.5720    -4.1460     0.1610 ha         1 OM2       0.129000
     30 H5           3.2310    -3.1530    -0.8560 ha         1 OM2       0.126000
     31 H6           5.3900    -2.4700     0.1520 ha         1 OM2       0.152000
     32 H191        -1.1980    -3.2040    -1.4170 hx         1 OM2       0.088700
     33 H192        -1.4080    -1.5580    -2.0100 hx         1 OM2       0.088700
     34 H201         0.7640    -1.1530    -2.1590 hx         1 OM2       0.076200
     35 H202         1.1910    -2.7810    -1.6450 hx         1 OM2       0.076200
     36 H23         -3.1630     1.4080     0.9480 hn         1 OM2       0.312500
     37 H151         5.5850     1.8780     2.1590 h2         1 OM2       0.066200
     38 H152         6.0070     2.0980     0.4290 h2         1 OM2       0.066200
     39 H161        -1.4060     2.4190     2.0220 hc         1 OM2       0.042700
     40 H162        -0.3560     3.3930     1.0120 hc         1 OM2       0.042700
     41 H163        -1.1850     4.1250     2.3930 hc         1 OM2       0.042700
     42 H211        -3.3880     3.8180     1.2680 hc         1 OM2       0.037200
     43 H212        -2.3130     4.7930     0.2970 hc         1 OM2       0.037200
     44 H171        -3.9230     2.7460    -2.2880 hc         1 OM2       0.040033
     45 H172        -4.7030     3.4950    -0.8890 hc         1 OM2       0.040033
     46 H173        -3.4850     4.3830    -1.8100 hc         1 OM2       0.040033
     47 H22         -1.7250     2.7960    -1.0670 h1         1 OM2       0.096700
     48 H181         0.9810    -2.1310     1.3640 hx         1 OM2       0.070700
     49 H182        -0.7530    -2.4220     1.5120 hx         1 OM2       0.070700
     50 H183         0.2630    -3.5660     0.6070 hx         1 OM2       0.070700
     51 H224        -0.1600    -0.6570    -0.1420 hn         1 OM2       0.537800
     52 C16         -1.2870     3.4080     1.5780 c3         1 OM2      -0.094100
     53 O25          0.1370     0.7370    -0.1360 o          1 OM2      -0.748800
     54 O27          1.6570     2.3000    -0.5460 o          1 OM2      -0.748800
     55 C14          1.3230     1.1400    -0.3170 c          1 OM2       0.944200
@<TRIPOS>BOND
     1     1     2 ar  
     2     1     3 ar  
     3     1    26 1   
     4     2     4 ar  
     5     2    27 1   
     6     3     7 ar  
     7     3    28 1   
     8     4     9 ar  
     9     4    29 1   
    10     5     6 ar  
    11     5    10 ar  
    12     5    30 1   
    13     6    11 ar  
    14     6    31 1   
    15     7     9 ar  
    16     7    13 1   
    17     8    10 ar  
    18     8    12 ar  
    19     8    55 1   
    20     9    17 1   
    21    10    18 1   
    22    11    12 ar  
    23    11    24 1   
    24    12    25 1   
    25    13    21 1   
    26    13    23 2   
    27    14    24 1   
    28    14    25 1   
    29    14    37 1   
    30    14    38 1   
    31    15    20 1   
    32    15    44 1   
    33    15    45 1   
    34    15    46 1   
    35    16    22 1   
    36    16    48 1   
    37    16    49 1   
    38    16    50 1   
    39    17    22 1   
    40    17    32 1   
    41    17    33 1   
    42    18    22 1   
    43    18    34 1   
    44    18    35 1   
    45    19    20 1   
    46    19    42 1   
    47    19    43 1   
    48    19    52 1   
    49    20    21 1   
    50    20    47 1   
    51    21    36 1   
    52    22    51 1   
    53    39    52 1   
    54    40    52 1   
    55    41    52 1   
    56    53    55 1   
    57    54    55 1   
@<TRIPOS>SUBSTRUCTURE
     1 OM2         1 TEMP              0 ****  ****    0 ROOT
