@<TRIPOS>MOLECULE
OM2
   55    57     1     0     0
SMALL
No Charge or Current Charge


@<TRIPOS>ATOM
      1 C1          -4.8110    -1.7950     1.5770 ca         1 OM2      -0.094000
      2 C2          -4.2480    -3.0600     1.3710 ca         1 OM2      -0.101000
      3 C3          -4.2910    -0.6750     0.9080 ca         1 OM2      -0.096000
      4 C4          -3.1650    -3.2030     0.4950 ca         1 OM2      -0.109000
      5 C5           3.4470    -1.9830    -0.9300 ca         1 OM2      -0.110000
      6 C6           4.6670    -1.5600    -0.3670 ca         1 OM2      -0.108000
      7 C7          -3.1930    -0.7950     0.0160 ca         1 OM2      -0.106600
      8 C8           2.3240     0.0330    -0.0800 ca         1 OM2      -0.130600
      9 C9          -2.6320    -2.0910    -0.1850 ca         1 OM2      -0.082300
     10 C10          2.2750    -1.1990    -0.7940 ca         1 OM2      -0.126300
     11 C11          4.6850    -0.3440     0.3210 ca         1 OM2       0.061100
     12 C12          3.5610     0.4220     0.4600 ca         1 OM2       0.093100
     13 C13         -2.6580     0.4450    -0.6950 c          1 OM2       0.614700
     14 C15          5.2490     1.4910     1.4090 c5         1 OM2       0.367600
     15 C17         -3.4510     3.4130    -1.8090 c3         1 OM2      -0.106100
     16 C18          0.3170    -3.1010     0.5870 c3         1 OM2       0.088900
     17 C19         -1.4300    -2.3420    -1.0820 c3         1 OM2       0.156900
     18 C20          0.9850    -1.7070    -1.4230 c3         1 OM2       0.166900
     19 C21         -2.5640     4.0100     0.5180 c3         1 OM2      -0.087400
     20 C22         -2.5690     2.9650    -0.6250 c3         1 OM2       0.115700
     21 N23         -2.9980     1.6560    -0.1290 ns         1 OM2      -0.473900
     22 N24         -0.1010    -2.0280    -0.4160 nx         1 OM2      -0.746000
     23 O26         -1.9990     0.3980    -1.7250 o          1 OM2      -0.610100
     24 O28          5.7640     0.1940     0.9440 os         1 OM2      -0.347100
     25 O29          3.7950     1.5370     1.2020 os         1 OM2      -0.305100
     26 H1          -5.6560    -1.6810     2.2520 ha         1 OM2       0.123000
     27 H2          -4.6500    -3.9270     1.8900 ha         1 OM2       0.121000
     28 H3          -4.7740     0.2830     1.0820 ha         1 OM2       0.127000
     29 H4          -2.7290    -4.1890     0.3470 ha         1 OM2       0.111000
     30 H5           3.4080    -2.9270    -1.4710 ha         1 OM2       0.108000
     31 H6           5.5690    -2.1610    -0.4610 ha         1 OM2       0.134000
     32 H191        -1.4090    -3.3880    -1.4000 hx         1 OM2       0.088700
     33 H192        -1.5120    -1.7430    -1.9910 hx         1 OM2       0.088700
     34 H201         0.5940    -0.9520    -2.1100 hx         1 OM2       0.076200
     35 H202         1.1830    -2.6110    -2.0040 hx         1 OM2       0.076200
     36 H23         -3.5240     1.6230     0.7330 hn         1 OM2       0.312500
     37 H151         5.4780     1.6240     2.4720 h2         1 OM2       0.066200
     38 H152         5.7160     2.2900     0.8200 h2         1 OM2       0.066200
     39 H161        -1.9440     2.7210     2.1840 hc         1 OM2       0.042700
     40 H162        -0.5990     3.5390     1.3560 hc         1 OM2       0.042700
     41 H163        -1.6550     4.4510     2.4520 hc         1 OM2       0.042700
     42 H211        -3.5860     4.1420     0.8960 hc         1 OM2       0.037200
     43 H212        -2.2520     4.9800     0.1110 hc         1 OM2       0.037200
     44 H171        -3.4050     2.6850    -2.6270 hc         1 OM2       0.040033
     45 H172        -4.4970     3.5160    -1.4980 hc         1 OM2       0.040033
     46 H173        -3.1100     4.3800    -2.1990 hc         1 OM2       0.040033
     47 H22         -1.5360     2.8680    -0.9910 h1         1 OM2       0.096700
     48 H181         1.2400    -2.7930     1.0850 hx         1 OM2       0.070700
     49 H182        -0.4730    -3.2330     1.3310 hx         1 OM2       0.070700
     50 H183         0.4850    -4.0440     0.0610 hx         1 OM2       0.070700
     51 H224        -0.2380    -1.1320     0.1260 hn         1 OM2       0.593000
     52 C16         -1.6340     3.6550     1.6990 c3         1 OM2      -0.094100
     53 O25          0.1700     0.4190     0.7320 o          1 OM2      -0.643500
     54 O27          1.1270     2.0260    -0.3590 o          1 OM2      -0.643500
     55 C14          1.1160     0.9040     0.1240 c          1 OM2       0.733600
@<TRIPOS>BOND
     1     1     2 ar  
     2     1     3 ar  
     3     1    26 1   
     4     2     4 ar  
     5     2    27 1   
     6     3     7 ar  
     7     3    28 1   
     8     4     9 ar  
     9     4    29 1   
    10     5     6 ar  
    11     5    10 ar  
    12     5    30 1   
    13     6    11 ar  
    14     6    31 1   
    15     7     9 ar  
    16     7    13 1   
    17     8    10 ar  
    18     8    12 ar  
    19     8    55 1   
    20     9    17 1   
    21    10    18 1   
    22    11    12 ar  
    23    11    24 1   
    24    12    25 1   
    25    13    21 1   
    26    13    23 2   
    27    14    24 1   
    28    14    25 1   
    29    14    37 1   
    30    14    38 1   
    31    15    20 1   
    32    15    44 1   
    33    15    45 1   
    34    15    46 1   
    35    16    22 1   
    36    16    48 1   
    37    16    49 1   
    38    16    50 1   
    39    17    22 1   
    40    17    32 1   
    41    17    33 1   
    42    18    22 1   
    43    18    34 1   
    44    18    35 1   
    45    19    20 1   
    46    19    42 1   
    47    19    43 1   
    48    19    52 1   
    49    20    21 1   
    50    20    47 1   
    51    21    36 1   
    52    22    51 1   
    53    39    52 1   
    54    40    52 1   
    55    41    52 1   
    56    53    55 1   
    57    54    55 1   
@<TRIPOS>SUBSTRUCTURE
     1 OM2         1 TEMP              0 ****  ****    0 ROOT
