@<TRIPOS>MOLECULE
OM3
   63    66     1     0     0
SMALL
abcg2


@<TRIPOS>ATOM
      1 C1           2.2320    -4.8120    -2.1070 ca         1 OM3      -0.074000
      2 C2           1.5270    -5.4920    -1.1300 ca         1 OM3      -0.075000
      3 C3           2.2570    -3.4250    -2.0980 ca         1 OM3      -0.082000
      4 C4           0.8430    -4.7800    -0.1550 ca         1 OM3      -0.089000
      5 C5          -4.0640    -0.4330     1.1690 ca         1 OM3      -0.096000
      6 C6          -4.9980     0.5260     0.7590 ca         1 OM3      -0.079000
      7 C7           1.5760    -2.7030    -1.1210 ca         1 OM3      -0.140600
      8 C8          -2.1960     1.0820     0.8150 ca         1 OM3      -0.116600
      9 C9           0.8480    -3.3900    -0.1370 ca         1 OM3      -0.113300
     10 C10         -2.7020    -0.1920     1.2090 ca         1 OM3      -0.114300
     11 C11         -4.4980     1.7360     0.3720 ca         1 OM3       0.083100
     12 C12         -3.1320     2.0060     0.3890 ca         1 OM3       0.121100
     13 C13          1.5820    -1.2080    -1.1930 c          1 OM3       0.619700
     14 C15          4.8140     3.4330     1.2180 c6         1 OM3      -0.076400
     15 C16          5.3830     3.3860    -0.1970 c6         1 OM3      -0.074400
     16 C17          4.3680     2.0490     1.6780 c6         1 OM3      -0.074400
     17 C18          4.3940     2.7590    -1.1760 c6         1 OM3      -0.072900
     18 C19          3.3760     1.4380     0.6920 c6         1 OM3      -0.072900
     19 C20         -4.2140     3.8610    -0.2030 c5         1 OM3       0.367600
     20 C21          3.9570     1.3680    -0.7180 c6         1 OM3      -0.080700
     21 C22         -2.0050    -2.8250    -0.3160 c3         1 OM3       0.078900
     22 C23          0.1070    -2.7000     0.9730 c3         1 OM3       0.151900
     23 C24         -1.8310    -1.3350     1.6470 c3         1 OM3       0.171900
     24 N26          2.7500    -0.6490    -1.4910 ns         1 OM3      -0.451900
     25 N27         -1.1090    -1.9720     0.4950 nx         1 OM3      -0.688000
     26 O28         -0.0130     0.8080     1.6570 oh         1 OM3      -0.653100
     27 O29          0.5490    -0.5520    -1.0100 o          1 OM3      -0.676100
     28 O30         -0.3600     2.4520     0.1990 o          1 OM3      -0.448000
     29 O31         -5.1670     2.8170    -0.0690 os         1 OM3      -0.322100
     30 O32         -2.9320     3.2650    -0.0320 os         1 OM3      -0.304100
     31 H1           2.7600    -5.3530    -2.8810 ha         1 OM3       0.143000
     32 H2           1.5020    -6.5730    -1.1230 ha         1 OM3       0.142000
     33 H3           2.7940    -2.9050    -2.8810 ha         1 OM3       0.135000
     34 H4           0.2940    -5.3140     0.6110 ha         1 OM3       0.125000
     35 H5          -4.4320    -1.4030     1.4750 ha         1 OM3       0.123000
     36 H6          -6.0570     0.3100     0.7490 ha         1 OM3       0.158000
     37 H231        -0.2130    -3.4250     1.7200 hx         1 OM3       0.094200
     38 H232         0.7320    -1.9630     1.4780 hx         1 OM3       0.094200
     39 H241        -1.0880    -1.0420     2.3800 hx         1 OM3       0.097200
     40 H242        -2.4390    -2.1170     2.1000 hx         1 OM3       0.097200
     41 H26          3.5570    -1.2500    -1.5630 hn         1 OM3       0.328500
     42 H28          0.9040     1.1170     1.5960 ho         1 OM3       0.493000
     43 H152         3.9560     4.1130     1.2390 hc         1 OM3       0.048700
     44 H161         5.6510     4.3910    -0.5320 hc         1 OM3       0.045950
     45 H162         6.3090     2.8010    -0.1940 hc         1 OM3       0.045950
     46 H171         5.2400     1.3920     1.7610 hc         1 OM3       0.045950
     47 H172         3.9220     2.1030     2.6740 hc         1 OM3       0.045950
     48 H181         3.5120     3.4040    -1.2620 hc         1 OM3       0.039700
     49 H182         4.8370     2.7000    -2.1740 hc         1 OM3       0.039700
     50 H191         3.0730     0.4420     1.0310 hc         1 OM3       0.039700
     51 H192         2.4770     2.0700     0.6590 hc         1 OM3       0.039700
     52 H21          4.8510     0.7300    -0.6890 hc         1 OM3       0.049700
     53 H201        -4.2820     4.3030    -1.1970 h2         1 OM3       0.088200
     54 H202        -4.3750     4.6170     0.5700 h2         1 OM3       0.088200
     55 H221        -2.9030    -2.2670    -0.5610 hx         1 OM3       0.089033
     56 H222        -1.5050    -3.1080    -1.2360 hx         1 OM3       0.089033
     57 H223        -2.2680    -3.7150     0.2500 hx         1 OM3       0.089033
     58 H227        -0.7020    -1.2460    -0.1380 hn         1 OM3       0.560000
     59 C14         -0.7770     1.5180     0.8360 c          1 OM3       0.624700
     60 C25          2.9810     0.7630    -1.7240 c3         1 OM3       0.086000
     61 H151         5.5540     3.8430     1.9090 hc         1 OM3       0.048700
     62 H251         2.0250     1.2850    -1.6930 h1         1 OM3       0.075200
     63 H252         3.3800     0.8760    -2.7350 h1         1 OM3       0.075200
@<TRIPOS>BOND
     1     1     2 ar  
     2     1     3 ar  
     3     1    31 1   
     4     2     4 ar  
     5     2    32 1   
     6     3     7 ar  
     7     3    33 1   
     8     4     9 ar  
     9     4    34 1   
    10     5     6 ar  
    11     5    10 ar  
    12     5    35 1   
    13     6    11 ar  
    14     6    36 1   
    15     7     9 ar  
    16     7    13 1   
    17     8    10 ar  
    18     8    12 ar  
    19     8    59 1   
    20     9    22 1   
    21    10    23 1   
    22    11    12 ar  
    23    11    29 1   
    24    12    30 1   
    25    13    24 1   
    26    13    27 2   
    27    14    15 1   
    28    14    16 1   
    29    14    43 1   
    30    14    61 1   
    31    15    17 1   
    32    15    44 1   
    33    15    45 1   
    34    16    18 1   
    35    16    46 1   
    36    16    47 1   
    37    17    20 1   
    38    17    48 1   
    39    17    49 1   
    40    18    20 1   
    41    18    50 1   
    42    18    51 1   
    43    19    29 1   
    44    19    30 1   
    45    19    53 1   
    46    19    54 1   
    47    20    52 1   
    48    20    60 1   
    49    21    25 1   
    50    21    55 1   
    51    21    56 1   
    52    21    57 1   
    53    22    25 1   
    54    22    37 1   
    55    22    38 1   
    56    23    25 1   
    57    23    39 1   
    58    23    40 1   
    59    24    41 1   
    60    24    60 1   
    61    25    58 1   
    62    26    42 1   
    63    26    59 1   
    64    28    59 2   
    65    60    62 1   
    66    60    63 1   
@<TRIPOS>SUBSTRUCTURE
     1 OM3         1 TEMP              0 ****  ****    0 ROOT
