@<TRIPOS>MOLECULE
OM3
   63    66     1     0     0
SMALL
No Charge or Current Charge


@<TRIPOS>ATOM
      1 C1           2.3490    -4.8610    -2.0390 ca         1 OM3      -0.074000
      2 C2           1.6450    -5.5580    -1.0500 ca         1 OM3      -0.075000
      3 C3           2.3290    -3.4580    -2.0600 ca         1 OM3      -0.082000
      4 C4           0.9220    -4.8500    -0.0810 ca         1 OM3      -0.089000
      5 C5          -4.0740    -0.4280     1.0100 ca         1 OM3      -0.096000
      6 C6          -4.9660     0.5520     0.5350 ca         1 OM3      -0.079000
      7 C7           1.6040    -2.7180    -1.0910 ca         1 OM3      -0.140600
      8 C8          -2.2170     1.1950     0.9830 ca         1 OM3      -0.116600
      9 C9           0.8920    -3.4410    -0.0850 ca         1 OM3      -0.113300
     10 C10         -2.7070    -0.1260     1.2340 ca         1 OM3      -0.114300
     11 C11         -4.4600     1.8270     0.2820 ca         1 OM3       0.083100
     12 C12         -3.1440     2.1370     0.4950 ca         1 OM3       0.121100
     13 C13          1.5990    -1.1990    -1.1690 c          1 OM3       0.619700
     14 C15          4.7670     3.2620     1.2920 c6         1 OM3      -0.076400
     15 C16          5.2100     3.4950    -0.1720 c6         1 OM3      -0.074400
     16 C17          4.5220     1.7580     1.5660 c6         1 OM3      -0.074400
     17 C18          4.1810     2.9070    -1.1690 c6         1 OM3      -0.072900
     18 C19          3.4940     1.1660     0.5700 c6         1 OM3      -0.072900
     19 C20         -4.1580     3.9210    -0.3430 c5         1 OM3       0.367600
     20 C21          3.9290     1.3950    -0.9080 c6         1 OM3      -0.080700
     21 C22         -2.0650    -2.8250    -0.2890 c3         1 OM3       0.078900
     22 C23          0.1020    -2.7700     1.0360 c3         1 OM3       0.151900
     23 C24         -1.8140    -1.2670     1.7030 c3         1 OM3       0.171900
     24 N26          2.6880    -0.6210    -1.7820 ns         1 OM3      -0.451900
     25 N27         -1.1090    -1.9870     0.5650 nx         1 OM3      -0.688000
     26 O28         -0.1770     1.1330     2.2950 oh         1 OM3      -0.653100
     27 O29          0.6650    -0.5160    -0.7690 o          1 OM3      -0.676100
     28 O30         -0.1890     2.4190     0.4960 o          1 OM3      -0.448000
     29 O31         -5.1860     2.8890    -0.1530 os         1 OM3      -0.322100
     30 O32         -2.8900     3.4470     0.2290 os         1 OM3      -0.304100
     31 H1           2.9060    -5.4090    -2.7960 ha         1 OM3       0.143000
     32 H2           1.6590    -6.6460    -1.0340 ha         1 OM3       0.142000
     33 H3           2.8660    -2.9560    -2.8620 ha         1 OM3       0.135000
     34 H4           0.3820    -5.4030     0.6850 ha         1 OM3       0.125000
     35 H5          -4.4470    -1.4330     1.2010 ha         1 OM3       0.123000
     36 H6          -6.0160     0.3250     0.3670 ha         1 OM3       0.158000
     37 H231        -0.2430    -3.5250     1.7480 hx         1 OM3       0.094200
     38 H232         0.7570    -2.0850     1.5820 hx         1 OM3       0.094200
     39 H241        -1.0590    -0.9010     2.4000 hx         1 OM3       0.097200
     40 H242        -2.4080    -2.0040     2.2490 hx         1 OM3       0.097200
     41 H26          3.4280    -1.2460    -2.0730 hn         1 OM3       0.328500
     42 H28          0.6970     1.5660     2.2480 ho         1 OM3       0.493000
     43 H152         3.8490     3.8300     1.4970 hc         1 OM3       0.048700
     44 H161         5.3350     4.5700    -0.3570 hc         1 OM3       0.045950
     45 H162         6.1940     3.0330    -0.3400 hc         1 OM3       0.045950
     46 H171         5.4700     1.2090     1.4880 hc         1 OM3       0.045950
     47 H172         4.1650     1.6200     2.5960 hc         1 OM3       0.045950
     48 H181         3.2350     3.4620    -1.0880 hc         1 OM3       0.039700
     49 H182         4.5420     3.0550    -2.1960 hc         1 OM3       0.039700
     50 H191         3.3780     0.0930     0.7730 hc         1 OM3       0.039700
     51 H192         2.5110     1.6250     0.7400 hc         1 OM3       0.039700
     52 H21          4.8690     0.8540    -1.0820 hc         1 OM3       0.049700
     53 H201        -4.0210     4.0930    -1.4170 h2         1 OM3       0.088200
     54 H202        -4.4660     4.8510     0.1490 h2         1 OM3       0.088200
     55 H221        -2.8650    -2.1890    -0.6760 hx         1 OM3       0.089033
     56 H222        -1.5170    -3.2670    -1.1240 hx         1 OM3       0.089033
     57 H223        -2.4960    -3.6210     0.3220 hx         1 OM3       0.089033
     58 H227        -0.6950    -1.2380    -0.0540 hn         1 OM3       0.560000
     59 C14         -0.7880     1.6340     1.2090 c          1 OM3       0.624700
     60 C25          2.9020     0.8240    -1.9290 c3         1 OM3       0.086000
     61 H151         5.5330     3.6470     1.9800 hc         1 OM3       0.048700
     62 H251         1.9470     1.3560    -1.8160 h1         1 OM3       0.075200
     63 H252         3.2680     1.0170    -2.9470 h1         1 OM3       0.075200
@<TRIPOS>BOND
     1     1     2 ar  
     2     1     3 ar  
     3     1    31 1   
     4     2     4 ar  
     5     2    32 1   
     6     3     7 ar  
     7     3    33 1   
     8     4     9 ar  
     9     4    34 1   
    10     5     6 ar  
    11     5    10 ar  
    12     5    35 1   
    13     6    11 ar  
    14     6    36 1   
    15     7     9 ar  
    16     7    13 1   
    17     8    10 ar  
    18     8    12 ar  
    19     8    59 1   
    20     9    22 1   
    21    10    23 1   
    22    11    12 ar  
    23    11    29 1   
    24    12    30 1   
    25    13    24 1   
    26    13    27 2   
    27    14    15 1   
    28    14    16 1   
    29    14    43 1   
    30    14    61 1   
    31    15    17 1   
    32    15    44 1   
    33    15    45 1   
    34    16    18 1   
    35    16    46 1   
    36    16    47 1   
    37    17    20 1   
    38    17    48 1   
    39    17    49 1   
    40    18    20 1   
    41    18    50 1   
    42    18    51 1   
    43    19    29 1   
    44    19    30 1   
    45    19    53 1   
    46    19    54 1   
    47    20    52 1   
    48    20    60 1   
    49    21    25 1   
    50    21    55 1   
    51    21    56 1   
    52    21    57 1   
    53    22    25 1   
    54    22    37 1   
    55    22    38 1   
    56    23    25 1   
    57    23    39 1   
    58    23    40 1   
    59    24    41 1   
    60    24    60 1   
    61    25    58 1   
    62    26    42 1   
    63    26    59 1   
    64    28    59 2   
    65    60    62 1   
    66    60    63 1   
@<TRIPOS>SUBSTRUCTURE
     1 OM3         1 TEMP              0 ****  ****    0 ROOT
