@<TRIPOS>MOLECULE
OM4
   26    27     1     0     0
SMALL
No Charge or Current Charge


@<TRIPOS>ATOM
      1 C1          24.5840    -2.7640     6.1350 cp         1 OM4      -0.074000
      2 C2          23.8340    -2.0060     7.0680 ca         1 OM4      -0.055000
      3 C3          22.8930    -2.6160     7.9140 ca         1 OM4       0.076000
      4 C4          22.6740    -4.0080     7.8500 ca         1 OM4       0.158100
      5 C5          23.4140    -4.7790     6.9260 ca         1 OM4      -0.196000
      6 C6          24.3550    -4.1620     6.0830 ca         1 OM4      -0.054000
      7 C7          21.4550    -5.9860     8.6990 c3         1 OM4       0.146900
      8 Cl1         21.9960    -1.6140     9.0570 cl         1 OM4      -0.181000
      9 O1          21.7390    -4.5760     8.6980 os         1 OM4      -0.321100
     10 Cl2         29.2210    -3.0270     3.6470 cl         1 OM4      -0.172000
     11 Cl4         28.6540    -0.0720     2.4660 cl         1 OM4      -0.170000
     12 C8          25.5870    -2.1110     5.2360 cp         1 OM4      -0.013000
     13 C9          26.7930    -2.7680     4.8850 ca         1 OM4      -0.093000
     14 C10         27.7370    -2.1570     4.0410 ca         1 OM4       0.119000
     15 C11         27.4920    -0.8680     3.5280 ca         1 OM4       0.117000
     16 C12         26.3040    -0.2000     3.8630 ca         1 OM4      -0.095000
     17 C13         25.3620    -0.8140     4.7080 ca         1 OM4      -0.095000
     18 H1          23.9910    -0.9340     7.1490 ha         1 OM4       0.132000
     19 H2          23.2720    -5.8530     6.8440 ha         1 OM4       0.123000
     20 H3          24.9010    -4.7750     5.3700 ha         1 OM4       0.119000
     21 H4          20.6860    -6.2170     9.4470 h1         1 OM4       0.045700
     22 H5          21.0840    -6.3100     7.7190 h1         1 OM4       0.045700
     23 H6          22.3540    -6.5650     8.9470 h1         1 OM4       0.045700
     24 H7          27.0080    -3.7570     5.2800 ha         1 OM4       0.133000
     25 H8          26.1110     0.7940     3.4660 ha         1 OM4       0.133000
     26 H9          24.4430    -0.2830     4.9430 ha         1 OM4       0.125000
@<TRIPOS>BOND
     1     1     2 ar  
     2     1     6 ar  
     3     1    12 1   
     4     2     3 ar  
     5     2    18 1   
     6     3     4 ar  
     7     3     8 1   
     8     4     5 ar  
     9     4     9 1   
    10     5     6 ar  
    11     5    19 1   
    12     6    20 1   
    13     7     9 1   
    14     7    21 1   
    15     7    22 1   
    16     7    23 1   
    17    10    14 1   
    18    11    15 1   
    19    12    13 ar  
    20    12    17 ar  
    21    13    14 ar  
    22    13    24 1   
    23    14    15 ar  
    24    15    16 ar  
    25    16    17 ar  
    26    16    25 1   
    27    17    26 1   
@<TRIPOS>SUBSTRUCTURE
     1 OM4         1 TEMP              0 ****  ****    0 ROOT
