@<TRIPOS>MOLECULE
OM4
   26    27     1     0     0
SMALL
bcc


@<TRIPOS>ATOM
      1 C1          24.5820    -2.7750     6.1360 cp         1 OM4      -0.074000
      2 C2          23.8450    -2.0270     7.0560 ca         1 OM4      -0.073000
      3 C3          22.9220    -2.6390     7.8780 ca         1 OM4      -0.015600
      4 C4          22.6920    -4.0180     7.8230 ca         1 OM4       0.158100
      5 C5          23.4270    -4.7620     6.9030 ca         1 OM4      -0.214000
      6 C6          24.3540    -4.1460     6.0770 ca         1 OM4      -0.072000
      7 C7          21.5330    -5.9120     8.6430 c3         1 OM4       0.123700
      8 CL1         22.0300    -1.6920     9.0170 cl         1 OM4      -0.089400
      9 O1          21.7790    -4.5160     8.6610 os         1 OM4      -0.297900
     10 CL2         29.1320    -3.0180     3.7000 cl         1 OM4      -0.080400
     11 CL4         28.5860    -0.1470     2.5310 cl         1 OM4      -0.078400
     12 C8          25.5680    -2.1220     5.2550 cp         1 OM4      -0.013000
     13 C9          26.7520    -2.7750     4.9190 ca         1 OM4      -0.111000
     14 C10         27.6790    -2.1760     4.0820 ca         1 OM4       0.027400
     15 C11         27.4430    -0.9060     3.5710 ca         1 OM4       0.025400
     16 C12         26.2710    -0.2440     3.9040 ca         1 OM4      -0.113000
     17 C13         25.3440    -0.8470     4.7360 ca         1 OM4      -0.113000
     18 H1          24.0060    -0.9610     7.1500 ha         1 OM4       0.150000
     19 H2          23.2760    -5.8290     6.8110 ha         1 OM4       0.141000
     20 H3          24.8880    -4.7580     5.3610 ha         1 OM4       0.137000
     21 H4          20.7680    -6.0960     9.3930 h1         1 OM4       0.045700
     22 H5          21.1640    -6.2460     7.6710 h1         1 OM4       0.045700
     23 H6          22.4270    -6.4840     8.9020 h1         1 OM4       0.045700
     24 H7          26.9700    -3.7540     5.3250 ha         1 OM4       0.151000
     25 H8          26.0780     0.7410     3.5030 ha         1 OM4       0.151000
     26 H9          24.4270    -0.3190     4.9610 ha         1 OM4       0.143000
@<TRIPOS>BOND
     1     1     2 ar  
     2     1     6 ar  
     3     1    12 1   
     4     2     3 ar  
     5     2    18 1   
     6     3     4 ar  
     7     3     8 1   
     8     4     5 ar  
     9     4     9 1   
    10     5     6 ar  
    11     5    19 1   
    12     6    20 1   
    13     7     9 1   
    14     7    21 1   
    15     7    22 1   
    16     7    23 1   
    17    10    14 1   
    18    11    15 1   
    19    12    13 ar  
    20    12    17 ar  
    21    13    14 ar  
    22    13    24 1   
    23    14    15 ar  
    24    15    16 ar  
    25    16    17 ar  
    26    16    25 1   
    27    17    26 1   
@<TRIPOS>SUBSTRUCTURE
     1 OM4         1 TEMP              0 ****  ****    0 ROOT
