@<TRIPOS>MOLECULE
OM6
   33    35     1     0     0
SMALL
bcc


@<TRIPOS>ATOM
      1 C10          3.8670     7.6700    21.6050 c6         1 OM6      -0.073400
      2 C11          5.8030     7.5120    23.2000 c6         1 OM6      -0.073400
      3 C13          7.1570     5.4410    17.1260 ca         1 OM6      -0.219000
      4 C15          6.3920     6.7540    15.2070 ca         1 OM6      -0.284000
      5 C16          6.8000     5.5320    15.7820 ca         1 OM6       0.209100
      6 C1           7.1940     8.0290    19.6170 c5         1 OM6       0.024100
      7 C2           6.2090     8.0880    20.7780 c6         1 OM6      -0.055700
      8 C3           6.7280     8.7990    18.3820 c          1 OM6       0.582700
      9 O4           7.3960     6.6790    19.1720 os         1 OM6      -0.287900
     10 C5           4.8240     7.5460    20.4220 c6         1 OM6      -0.071900
     11 C6           6.7630     7.3900    22.0200 c6         1 OM6      -0.071900
     12 C7           6.6890     7.8190    17.3210 ca         1 OM6      -0.324600
     13 O8           6.4580     9.9810    18.3610 o          1 OM6      -0.508100
     14 C9           7.0890     6.6030    17.8710 ca         1 OM6       0.205100
     15 C12          6.3360     7.8940    15.9760 ca         1 OM6       0.031000
     16 C14          4.4200     6.9790    22.8450 c6         1 OM6      -0.075400
     17 H24          3.7010     8.7300    21.8250 hc         1 OM6       0.040200
     18 H25          2.8940     7.2520    21.3380 hc         1 OM6       0.040200
     19 H27          6.2070     6.9780    24.0630 hc         1 OM6       0.040200
     20 H26          5.7230     8.5640    23.4930 hc         1 OM6       0.040200
     21 H29          7.4680     4.4980    17.5570 ha         1 OM6       0.168000
     22 H32          6.1220     6.7880    14.1590 ha         1 OM6       0.138000
     23 H18          8.1660     8.4200    19.9400 h1         1 OM6       0.093700
     24 H19          6.1070     9.1560    21.0100 hc         1 OM6       0.067700
     25 H20          4.4100     8.0780    19.5610 hc         1 OM6       0.046450
     26 H21          4.9020     6.4920    20.1350 hc         1 OM6       0.046450
     27 H23          6.9310     6.3300    21.8020 hc         1 OM6       0.046450
     28 H22          7.7360     7.8160    22.2800 hc         1 OM6       0.046450
     29 H28          6.0220     8.8340    15.5390 ha         1 OM6       0.148000
     30 H30          3.7360     7.1090    23.6870 hc         1 OM6       0.040200
     31 H31          4.4850     5.9010    22.6600 hc         1 OM6       0.040200
     32 H33          6.5960     4.5620    14.1480 ho         1 OM6       0.435000
     33 O17          6.8630     4.4080    15.0620 oh         1 OM6      -0.485100
@<TRIPOS>BOND
     1     1    10 1   
     2     1    16 1   
     3     1    17 1   
     4     1    18 1   
     5     2    11 1   
     6     2    16 1   
     7     2    19 1   
     8     2    20 1   
     9     3     5 ar  
    10     3    14 ar  
    11     3    21 1   
    12     4     5 ar  
    13     4    15 ar  
    14     4    22 1   
    15     5    33 1   
    16     6     7 1   
    17     6     8 1   
    18     6     9 1   
    19     6    23 1   
    20     7    10 1   
    21     7    11 1   
    22     7    24 1   
    23     8    12 1   
    24     8    13 2   
    25     9    14 1   
    26    10    25 1   
    27    10    26 1   
    28    11    27 1   
    29    11    28 1   
    30    12    14 ar  
    31    12    15 ar  
    32    15    29 1   
    33    16    30 1   
    34    16    31 1   
    35    32    33 1   
@<TRIPOS>SUBSTRUCTURE
     1 OM6         1 TEMP              0 ****  ****    0 ROOT
