@<TRIPOS>MOLECULE
OM6
   33    35     1     0     0
SMALL
No Charge or Current Charge


@<TRIPOS>ATOM
      1 C10          3.8170     7.6870    21.7140 c6         1 OM6      -0.073400
      2 C11          5.8300     7.5470    23.2790 c6         1 OM6      -0.073400
      3 C13          7.1420     5.4000    17.0460 ca         1 OM6      -0.201000
      4 C15          6.4960     6.7440    15.1110 ca         1 OM6      -0.266000
      5 C16          6.8570     5.5030    15.6750 ca         1 OM6       0.209100
      6 C1           7.1400     7.9850    19.5770 c5         1 OM6       0.047300
      7 C2           6.1790     8.1050    20.7990 c6         1 OM6      -0.055700
      8 C3           6.6960     8.7900    18.3200 c          1 OM6       0.582700
      9 O4           7.3080     6.5750    19.1830 os         1 OM6      -0.311100
     10 C5           4.7560     7.5480    20.4900 c6         1 OM6      -0.071900
     11 C6           6.7720     7.4080    22.0570 c6         1 OM6      -0.071900
     12 C7           6.7110     7.7600    17.2810 ca         1 OM6      -0.324600
     13 O8           6.3800     9.9660    18.1850 o          1 OM6      -0.508100
     14 C9           7.0640     6.5510    17.8330 ca         1 OM6       0.205100
     15 C12          6.4180     7.8960    15.9170 ca         1 OM6       0.049000
     16 C14          4.4170     6.9980    22.9630 c6         1 OM6      -0.075400
     17 H24          3.6400     8.7510    21.9260 hc         1 OM6       0.040200
     18 H25          2.8370     7.2490    21.4820 hc         1 OM6       0.040200
     19 H27          6.2540     7.0120    24.1390 hc         1 OM6       0.040200
     20 H26          5.7600     8.6040    23.5740 hc         1 OM6       0.040200
     21 H29          7.4170     4.4470    17.4880 ha         1 OM6       0.150000
     22 H32          6.2740     6.8220    14.0490 ha         1 OM6       0.120000
     23 H18          8.1260     8.3770    19.8580 h1         1 OM6       0.093700
     24 H19          6.0790     9.1760    21.0280 hc         1 OM6       0.067700
     25 H20          4.3160     8.0790    19.6340 hc         1 OM6       0.046450
     26 H21          4.8190     6.4900    20.1990 hc         1 OM6       0.046450
     27 H23          6.9450     6.3420    21.8520 hc         1 OM6       0.046450
     28 H22          7.7520     7.8400    22.3000 hc         1 OM6       0.046450
     29 H28          6.1380     8.8600    15.4940 ha         1 OM6       0.130000
     30 H30          3.7560     7.1510    23.8270 hc         1 OM6       0.040200
     31 H31          4.4710     5.9130    22.7980 hc         1 OM6       0.040200
     32 H33          6.6980     4.6590    13.9740 ho         1 OM6       0.474000
     33 O17          6.9280     4.3960    14.8900 oh         1 OM6      -0.524100
@<TRIPOS>BOND
     1     1    10 1   
     2     1    16 1   
     3     1    17 1   
     4     1    18 1   
     5     2    11 1   
     6     2    16 1   
     7     2    19 1   
     8     2    20 1   
     9     3     5 ar  
    10     3    14 ar  
    11     3    21 1   
    12     4     5 ar  
    13     4    15 ar  
    14     4    22 1   
    15     5    33 1   
    16     6     7 1   
    17     6     8 1   
    18     6     9 1   
    19     6    23 1   
    20     7    10 1   
    21     7    11 1   
    22     7    24 1   
    23     8    12 1   
    24     8    13 2   
    25     9    14 1   
    26    10    25 1   
    27    10    26 1   
    28    11    27 1   
    29    11    28 1   
    30    12    14 ar  
    31    12    15 ar  
    32    15    29 1   
    33    16    30 1   
    34    16    31 1   
    35    32    33 1   
@<TRIPOS>SUBSTRUCTURE
     1 OM6         1 TEMP              0 ****  ****    0 ROOT
