@<TRIPOS>MOLECULE
OM7
  112   117     1     0     0
SMALL
abcg2


@<TRIPOS>ATOM
      1 C10        -29.6340    -0.8670    -6.0690 c          1 OM7       0.600100
      2 C17        -29.9200    -2.9730    -8.2660 c3         1 OM7      -0.080400
      3 C21        -25.9710    -2.0010     0.1310 ca         1 OM7       0.307000
      4 C22        -26.5850    -1.1530     1.0730 ca         1 OM7       0.165000
      5 C24        -28.2750    -0.6720    -0.3910 ca         1 OM7       0.321300
      6 C26        -24.2090    -2.4950     1.6940 ca         1 OM7       0.165100
      7 C28        -25.9840    -0.9900     2.3370 ca         1 OM7      -0.029000
      8 C01        -27.4080    -0.7950    -5.1490 c5         1 OM7       0.030700
      9 C02        -26.6160    -1.7740    -4.2750 c5         1 OM7      -0.111400
     10 C03        -27.7030    -2.5160    -3.5100 c5         1 OM7       0.164300
     11 C04        -28.7850    -2.6910    -4.5560 c5         1 OM7       0.103000
     12 C06        -26.7550    -0.5870    -6.5090 c          1 OM7       0.591100
     13 C09        -25.7410     0.9830    -8.0180 cx         1 OM7      -0.067600
     14 C11        -30.9340    -1.6190    -6.3630 c3         1 OM7       0.053700
     15 C14        -32.3510    -0.5230    -4.7210 c          1 OM7       0.604100
     16 C16        -30.9850    -1.9600    -7.8530 c3         1 OM7      -0.087400
     17 C19        -27.6340    -1.5510    -1.3370 ca         1 OM7       0.555300
     18 C25        -24.7760    -2.6700     0.4490 ca         1 OM7      -0.203000
     19 C27        -24.8260    -1.6460     2.6440 ca         1 OM7      -0.141000
     20 C30        -22.3980    -3.9410     1.2060 c3         1 OM7       0.145900
     21 C32        -24.4510     0.4140    -8.5070 c          1 OM7       0.680100
     22 C38        -22.3200    -2.1850    -6.4670 cx         1 OM7      -0.398000
     23 C39        -20.9870    -2.4190    -5.8200 cx         1 OM7      -0.079400
     24 C40        -21.9970    -1.5590    -5.1380 cx         1 OM7      -0.079400
     25 C41        -23.3280    -3.2990    -6.5770 c3         1 OM7      -0.044100
     26 C42        -26.8800     1.2130    -9.0150 cx         1 OM7      -0.035500
     27 C43        -26.8560     0.7920   -10.4300 c2         1 OM7      -0.192200
     28 C44        -27.7290    -0.0570   -10.9770 c2         1 OM7      -0.188200
     29 C45        -28.8330    -0.8000   -10.2920 c3         1 OM7      -0.048200
     30 C46        -28.6520    -2.3140   -10.4070 c3         1 OM7      -0.073400
     31 C47        -26.1000     2.3640    -8.4910 cx         1 OM7      -0.097400
     32 C48        -29.7780    -3.1410    -9.7840 c3         1 OM7      -0.067400
     33 C49        -33.4470     0.5180    -4.5060 c3         1 OM7       0.045700
     34 C51        -32.8620     1.9370    -4.3330 c3         1 OM7      -0.066700
     35 C52        -32.3420     2.4920    -5.6620 c3         1 OM7      -0.082400
     36 C53        -31.8060     2.0230    -3.2330 c3         1 OM7      -0.091100
     37 C54        -32.0400     3.9840    -5.6100 c3         1 OM7      -0.086100
     38 C57        -35.6750    -1.2110    -1.9930 c3         1 OM7      -0.175100
     39 N05        -28.6890    -1.4580    -5.3260 n          1 OM7      -0.386800
     40 N08        -26.1480     0.6080    -6.7050 ns         1 OM7      -0.476900
     41 N13        -32.0560    -0.7850    -6.0060 ns         1 OM7      -0.489900
     42 N20        -26.5330    -2.1800    -1.0930 nb         1 OM7      -0.757000
     43 N23        -27.7380    -0.4990     0.7770 nb         1 OM7      -0.614000
     44 N33        -23.7650    -0.3040    -7.5600 ns         1 OM7      -0.572300
     45 N50        -34.2320     0.1720    -3.3500 ns         1 OM7      -0.496900
     46 O07        -26.7420    -1.4640    -7.3500 o          1 OM7      -0.567100
     47 O12        -29.4490     0.2430    -6.5560 o          1 OM7      -0.631100
     48 O15        -31.7590    -1.0480    -3.7940 o          1 OM7      -0.605100
     49 O18        -28.2660    -1.6850    -2.4960 os         1 OM7      -0.444300
     50 O29        -23.0760    -3.0830     2.1040 os         1 OM7      -0.335100
     51 O34        -24.0300     0.5730    -9.6300 o          1 OM7      -0.541100
     52 O36        -21.2160    -0.1410    -7.7510 o          1 OM7      -0.515500
     53 O37        -22.4510    -1.8520    -9.0860 o          1 OM7      -0.515500
     54 O56        -34.8960    -1.8050    -4.1790 o          1 OM7      -0.608100
     55 S35        -22.3080    -1.0930    -7.8570 s6         1 OM7       1.254800
     56 H171       -30.1750    -3.9340    -7.8100 hc         1 OM7       0.049700
     57 H172       -28.9470    -2.6950    -7.8520 hc         1 OM7       0.049700
     58 H281       -26.4570    -0.3380     3.0600 ha         1 OM7       0.135000
     59 H011       -27.5400     0.1630    -4.6370 h1         1 OM7       0.074700
     60 H022       -26.0810    -2.5010    -4.8900 hc         1 OM7       0.075200
     61 H021       -25.8900    -1.2750    -3.6360 hc         1 OM7       0.075200
     62 H031       -27.3660    -3.4650    -3.0910 h1         1 OM7       0.089700
     63 H041       -29.7680    -2.8100    -4.1060 h1         1 OM7       0.079700
     64 H042       -28.5640    -3.5670    -5.1690 h1         1 OM7       0.079700
     65 H111       -30.9970    -2.5470    -5.7930 h1         1 OM7       0.079700
     66 H162       -30.8980    -1.0390    -8.4340 hc         1 OM7       0.056700
     67 H161       -31.9750    -2.3700    -8.0730 hc         1 OM7       0.056700
     68 H251       -24.3370    -3.3100    -0.3040 ha         1 OM7       0.133000
     69 H271       -24.3660    -1.5240     3.6160 ha         1 OM7       0.134000
     70 H301       -21.5120    -4.2950     1.7270 h1         1 OM7       0.044700
     71 H303       -23.0110    -4.8010     0.9250 h1         1 OM7       0.044700
     72 H302       -22.0890    -3.4160     0.2990 h1         1 OM7       0.044700
     73 H313       -29.8690     0.6510     0.0810 hc         1 OM7       0.061033
     74 H311       -29.4220     0.6550    -1.6320 hc         1 OM7       0.061033
     75 H312       -30.3380    -0.6830    -0.9860 hc         1 OM7       0.061033
     76 H392       -20.8190    -3.4230    -5.4550 hc         1 OM7       0.087950
     77 H391       -20.1090    -1.9390    -6.2310 hc         1 OM7       0.087950
     78 H402       -22.5390    -1.9600    -4.2910 hc         1 OM7       0.087950
     79 H401       -21.8010    -0.4950    -5.0830 hc         1 OM7       0.087950
     80 H412       -23.3040    -3.8890    -5.6610 hc         1 OM7       0.054367
     81 H411       -24.3450    -2.9260    -6.7040 hc         1 OM7       0.054367
     82 H413       -23.1010    -3.9640    -7.4080 hc         1 OM7       0.054367
     83 H421       -27.8310     1.0640    -8.5190 hc         1 OM7       0.102700
     84 H431       -26.1020     1.2380   -11.0670 ha         1 OM7       0.189000
     85 H441       -27.6270    -0.2550   -12.0410 ha         1 OM7       0.168000
     86 H451       -28.9010    -0.5170    -9.2410 hc         1 OM7       0.046700
     87 H452       -29.7890    -0.5240   -10.7540 hc         1 OM7       0.046700
     88 H461       -28.5610    -2.5840   -11.4640 hc         1 OM7       0.048200
     89 H462       -27.7050    -2.5890    -9.9340 hc         1 OM7       0.048200
     90 H471       -25.3900     2.8480    -9.1490 hc         1 OM7       0.086700
     91 H472       -26.5660     3.0230    -7.7690 hc         1 OM7       0.086700
     92 H482       -30.7260    -2.9000   -10.2770 hc         1 OM7       0.037200
     93 H481       -29.5820    -4.1920   -10.0110 hc         1 OM7       0.037200
     94 H491       -34.0980     0.5380    -5.3880 h1         1 OM7       0.065700
     95 H511       -33.7180     2.5580    -4.0370 hc         1 OM7       0.049700
     96 H522       -31.4430     1.9500    -5.9650 hc         1 OM7       0.050200
     97 H521       -33.0920     2.3150    -6.4400 hc         1 OM7       0.050200
     98 H531       -31.5960     3.0620    -2.9850 hc         1 OM7       0.041367
     99 H533       -32.1200     1.5300    -2.3120 hc         1 OM7       0.041367
    100 H532       -30.8690     1.5600    -3.5460 hc         1 OM7       0.041367
    101 H542       -31.7270     4.3500    -6.5880 hc         1 OM7       0.034033
    102 H541       -32.9200     4.5540    -5.3080 hc         1 OM7       0.034033
    103 H543       -31.2410     4.2140    -4.9050 hc         1 OM7       0.034033
    104 H571       -36.7280    -1.3690    -2.2280 hc         1 OM7       0.061033
    105 H573       -35.3120    -2.1180    -1.5090 hc         1 OM7       0.061033
    106 H572       -35.5990    -0.3880    -1.2860 hc         1 OM7       0.061033
    107 H081       -26.2230     1.3240    -5.9990 hn         1 OM7       0.322500
    108 H131       -32.5500    -0.3070    -6.7420 hn         1 OM7       0.326500
    109 H331       -24.0440    -0.2260    -6.5900 hn         1 OM7       0.336500
    110 H501       -34.2650     0.8150    -2.5760 hn         1 OM7       0.322500
    111 C31        -29.5440     0.0270    -0.7490 c3         1 OM7      -0.140400
    112 C55        -34.9050    -0.9860    -3.2690 c          1 OM7       0.604100
@<TRIPOS>BOND
     1     1    14 1   
     2     1    39 1   
     3     1    47 2   
     4     2    16 1   
     5     2    32 1   
     6     2    56 1   
     7     2    57 1   
     8     3     4 ar  
     9     3    18 ar  
    10     3    42 ar  
    11     4     7 ar  
    12     4    43 ar  
    13     5    17 ar  
    14     5    43 ar  
    15     5   111 1   
    16     6    18 ar  
    17     6    19 ar  
    18     6    50 1   
    19     7    19 ar  
    20     7    58 1   
    21     8     9 1   
    22     8    12 1   
    23     8    39 1   
    24     8    59 1   
    25     9    10 1   
    26     9    60 1   
    27     9    61 1   
    28    10    11 1   
    29    10    49 1   
    30    10    62 1   
    31    11    39 1   
    32    11    63 1   
    33    11    64 1   
    34    12    40 1   
    35    12    46 2   
    36    13    21 1   
    37    13    26 1   
    38    13    31 1   
    39    13    40 1   
    40    14    16 1   
    41    14    41 1   
    42    14    65 1   
    43    15    33 1   
    44    15    41 1   
    45    15    48 2   
    46    16    66 1   
    47    16    67 1   
    48    17    42 ar  
    49    17    49 1   
    50    18    68 1   
    51    19    69 1   
    52    20    50 1   
    53    20    70 1   
    54    20    71 1   
    55    20    72 1   
    56    21    44 1   
    57    21    51 2   
    58    22    23 1   
    59    22    24 1   
    60    22    25 1   
    61    22    55 1   
    62    23    24 1   
    63    23    76 1   
    64    23    77 1   
    65    24    78 1   
    66    24    79 1   
    67    25    80 1   
    68    25    81 1   
    69    25    82 1   
    70    26    27 1   
    71    26    31 1   
    72    26    83 1   
    73    27    28 2   
    74    27    84 1   
    75    28    29 1   
    76    28    85 1   
    77    29    30 1   
    78    29    86 1   
    79    29    87 1   
    80    30    32 1   
    81    30    88 1   
    82    30    89 1   
    83    31    90 1   
    84    31    91 1   
    85    32    92 1   
    86    32    93 1   
    87    33    34 1   
    88    33    45 1   
    89    33    94 1   
    90    34    35 1   
    91    34    36 1   
    92    34    95 1   
    93    35    37 1   
    94    35    96 1   
    95    35    97 1   
    96    36    98 1   
    97    36    99 1   
    98    36   100 1   
    99    37   101 1   
   100    37   102 1   
   101    37   103 1   
   102    38   104 1   
   103    38   105 1   
   104    38   106 1   
   105    38   112 1   
   106    40   107 1   
   107    41   108 1   
   108    44    55 1   
   109    44   109 1   
   110    45   110 1   
   111    45   112 1   
   112    52    55 2   
   113    53    55 2   
   114    54   112 2   
   115    73   111 1   
   116    74   111 1   
   117    75   111 1   
@<TRIPOS>SUBSTRUCTURE
     1 OM7         1 TEMP              0 ****  ****    0 ROOT
