@<TRIPOS>MOLECULE
OM7
  112   117     1     0     0
SMALL
No Charge or Current Charge


@<TRIPOS>ATOM
      1 C10        -29.6360    -0.7070    -5.7220 c          1 OM7       0.600100
      2 C17        -29.9850    -3.0260    -7.8240 c3         1 OM7      -0.080400
      3 C21        -25.0390    -1.7620     0.0160 ca         1 OM7       0.307000
      4 C22        -24.7100    -0.4120     0.3810 ca         1 OM7       0.165000
      5 C24        -26.4010     0.3610    -0.9900 ca         1 OM7       0.321300
      6 C26        -23.2510    -2.5870     1.4660 ca         1 OM7       0.165100
      7 C28        -23.6540    -0.1930     1.2830 ca         1 OM7      -0.029000
      8 C01        -27.2000    -0.8840    -5.0780 c5         1 OM7       0.030700
      9 C02        -26.4690    -1.9350    -4.1860 c5         1 OM7      -0.111400
     10 C03        -27.5580    -2.3180    -3.1420 c5         1 OM7       0.164300
     11 C04        -28.8260    -2.4380    -4.0360 c5         1 OM7       0.103000
     12 C06        -26.5800    -0.9090    -6.5090 c          1 OM7       0.591100
     13 C09        -25.6830     0.6630    -8.2150 cx         1 OM7      -0.067600
     14 C11        -30.9830    -1.4450    -5.9940 c3         1 OM7       0.053700
     15 C14        -33.3740    -0.8800    -5.3690 c          1 OM7       0.604100
     16 C16        -31.0540    -1.9630    -7.4550 c3         1 OM7      -0.087400
     17 C19        -26.7200    -0.9820    -1.3740 ca         1 OM7       0.555300
     18 C25        -24.3060    -2.8270     0.5640 ca         1 OM7      -0.203000
     19 C27        -22.9300    -1.2710     1.8200 ca         1 OM7      -0.141000
     20 C30        -22.7510    -4.9910     1.7310 c3         1 OM7       0.145900
     21 C32        -24.5330    -0.1670    -8.8180 c          1 OM7       0.680100
     22 C38        -21.6580    -1.6680    -6.3700 cx         1 OM7      -0.398000
     23 C39        -20.1810    -1.8440    -6.0660 cx         1 OM7      -0.079400
     24 C40        -20.8990    -0.5900    -5.6160 cx         1 OM7      -0.079400
     25 C41        -22.6930    -2.5250    -5.6280 c3         1 OM7      -0.044100
     26 C42        -26.8350     1.1920    -9.0590 cx         1 OM7      -0.035500
     27 C43        -27.0380     0.7490   -10.4700 c2         1 OM7      -0.192200
     28 C44        -27.9420    -0.1590   -10.8840 c2         1 OM7      -0.188200
     29 C45        -28.9510    -0.9100   -10.0250 c3         1 OM7      -0.048200
     30 C46        -28.7570    -2.4420   -10.0750 c3         1 OM7      -0.073400
     31 C47        -25.7160     2.1160    -8.6470 cx         1 OM7      -0.097400
     32 C48        -29.8430    -3.2850    -9.3470 c3         1 OM7      -0.067400
     33 C49        -34.3640     0.2990    -5.1200 c3         1 OM7       0.045700
     34 C51        -34.1690     0.9910    -3.7280 c3         1 OM7      -0.066700
     35 C52        -32.8400     1.7980    -3.6400 c3         1 OM7      -0.082400
     36 C53        -34.3290    -0.0040    -2.5460 c3         1 OM7      -0.091100
     37 C54        -32.7410     2.7410    -2.4210 c3         1 OM7      -0.086100
     38 C57        -38.1690    -0.1330    -5.6510 c3         1 OM7      -0.175100
     39 N05        -28.5950    -1.3940    -5.0640 n          1 OM7      -0.386800
     40 N08        -26.0910     0.3370    -6.8560 ns         1 OM7      -0.476900
     41 N13        -32.0980    -0.5110    -5.7380 ns         1 OM7      -0.489900
     42 N20        -26.0450    -2.0440    -0.8510 nb         1 OM7      -0.757000
     43 N23        -25.3940     0.6510    -0.1200 nb         1 OM7      -0.614000
     44 N33        -23.5410    -0.3990    -7.9270 ns         1 OM7      -0.572300
     45 N50        -35.7570    -0.1810    -5.2770 ns         1 OM7      -0.496900
     46 O07        -26.5090    -1.8770    -7.2530 o          1 OM7      -0.567100
     47 O12        -29.4500     0.4330    -6.1350 o          1 OM7      -0.631100
     48 O15        -33.6960    -2.0580    -5.2640 o          1 OM7      -0.605100
     49 O18        -27.7860    -1.1880    -2.2420 os         1 OM7      -0.444300
     50 O29        -22.5050    -3.6040     2.0260 os         1 OM7      -0.335100
     51 O34        -24.4860    -0.5610    -9.9750 o          1 OM7      -0.541100
     52 O36        -21.1650    -0.4950    -8.7730 o          1 OM7      -0.515500
     53 O37        -22.5820    -2.6060    -8.7560 o          1 OM7      -0.515500
     54 O56        -36.7490     1.8130    -5.7690 o          1 OM7      -0.608100
     55 S35        -22.1860    -1.3360    -8.1380 s6         1 OM7       1.254800
     56 H171       -30.2590    -3.9660    -7.3290 hc         1 OM7       0.049700
     57 H172       -29.0060    -2.7490    -7.4220 hc         1 OM7       0.049700
     58 H281       -23.3940     0.8230     1.5690 ha         1 OM7       0.135000
     59 H011       -27.1470     0.1250    -4.6490 h1         1 OM7       0.074700
     60 H022       -26.1840    -2.8250    -4.7610 hc         1 OM7       0.075200
     61 H021       -25.5460    -1.5440    -3.7430 hc         1 OM7       0.075200
     62 H031       -27.3590    -3.2460    -2.5870 h1         1 OM7       0.089700
     63 H041       -29.7410    -2.2620    -3.4550 h1         1 OM7       0.079700
     64 H042       -28.8930    -3.4310    -4.4990 h1         1 OM7       0.079700
     65 H111       -31.0730    -2.2960    -5.3090 h1         1 OM7       0.079700
     66 H162       -30.9780    -1.1030    -8.1290 hc         1 OM7       0.056700
     67 H161       -32.0450    -2.3980    -7.6330 hc         1 OM7       0.056700
     68 H251       -24.5750    -3.8370     0.2720 ha         1 OM7       0.133000
     69 H271       -22.1170    -1.0830     2.5160 ha         1 OM7       0.134000
     70 H301       -22.0460    -5.6270     2.2800 h1         1 OM7       0.044700
     71 H303       -23.7690    -5.2780     2.0260 h1         1 OM7       0.044700
     72 H302       -22.6250    -5.1910     0.6590 h1         1 OM7       0.044700
     73 H313       -26.8600     2.4960    -1.0670 hc         1 OM7       0.061033
     74 H311       -26.9900     1.6600    -2.6230 hc         1 OM7       0.061033
     75 H312       -28.2420     1.4390    -1.3900 hc         1 OM7       0.061033
     76 H392       -19.8940    -2.5620    -5.3000 hc         1 OM7       0.087950
     77 H391       -19.4660    -1.7500    -6.8810 hc         1 OM7       0.087950
     78 H402       -21.0890    -0.4740    -4.5510 hc         1 OM7       0.087950
     79 H401       -20.6590     0.3380    -6.1310 hc         1 OM7       0.087950
     80 H412       -22.3900    -2.7100    -4.5890 hc         1 OM7       0.054367
     81 H411       -23.6740    -2.0370    -5.5990 hc         1 OM7       0.054367
     82 H413       -22.8180    -3.5030    -6.1090 hc         1 OM7       0.054367
     83 H421       -27.7760     1.3640    -8.5390 hc         1 OM7       0.102700
     84 H431       -26.3770     1.2170   -11.2030 ha         1 OM7       0.189000
     85 H441       -28.0010    -0.4080   -11.9460 ha         1 OM7       0.168000
     86 H451       -28.8880    -0.5860    -8.9810 hc         1 OM7       0.046700
     87 H452       -29.9650    -0.6680   -10.3660 hc         1 OM7       0.046700
     88 H461       -28.7300    -2.7570   -11.1250 hc         1 OM7       0.048200
     89 H462       -27.7730    -2.6870    -9.6560 hc         1 OM7       0.048200
     90 H471       -25.0170     2.4380    -9.4160 hc         1 OM7       0.086700
     91 H472       -25.9320     2.8690    -7.8940 hc         1 OM7       0.086700
     92 H482       -30.8130    -3.1430    -9.8400 hc         1 OM7       0.037200
     93 H481       -29.5850    -4.3420    -9.4880 hc         1 OM7       0.037200
     94 H491       -34.1790     1.0400    -5.9090 h1         1 OM7       0.065700
     95 H511       -34.9770     1.7260    -3.6310 hc         1 OM7       0.049700
     96 H522       -31.9850     1.1130    -3.6120 hc         1 OM7       0.050200
     97 H521       -32.7310     2.4060    -4.5470 hc         1 OM7       0.050200
     98 H531       -34.3570     0.5250    -1.5870 hc         1 OM7       0.041367
     99 H533       -35.2640    -0.5700    -2.6310 hc         1 OM7       0.041367
    100 H532       -33.4980    -0.7180    -2.5160 hc         1 OM7       0.041367
    101 H542       -31.8250     3.3410    -2.4810 hc         1 OM7       0.034033
    102 H541       -33.5960     3.4270    -2.3880 hc         1 OM7       0.034033
    103 H543       -32.7090     2.1770    -1.4830 hc         1 OM7       0.034033
    104 H571       -39.0090     0.5270    -5.8960 hc         1 OM7       0.061033
    105 H573       -38.0780    -0.9550    -6.3700 hc         1 OM7       0.061033
    106 H572       -38.3350    -0.6650    -4.7080 hc         1 OM7       0.061033
    107 H081       -26.2070     1.0800    -6.1760 hn         1 OM7       0.322500
    108 H131       -31.9120     0.4820    -5.8220 hn         1 OM7       0.326500
    109 H331       -23.6220    -0.0380    -6.9940 hn         1 OM7       0.336500
    110 H501       -35.9340    -1.1730    -5.1540 hn         1 OM7       0.322500
    111 C31        -27.1630     1.5570    -1.5460 c3         1 OM7      -0.140400
    112 C55        -36.8420     0.6100    -5.5750 c          1 OM7       0.604100
@<TRIPOS>BOND
     1     1    14 1   
     2     1    39 1   
     3     1    47 2   
     4     2    16 1   
     5     2    32 1   
     6     2    56 1   
     7     2    57 1   
     8     3     4 ar  
     9     3    18 ar  
    10     3    42 ar  
    11     4     7 ar  
    12     4    43 ar  
    13     5    17 ar  
    14     5    43 ar  
    15     5   111 1   
    16     6    18 ar  
    17     6    19 ar  
    18     6    50 1   
    19     7    19 ar  
    20     7    58 1   
    21     8     9 1   
    22     8    12 1   
    23     8    39 1   
    24     8    59 1   
    25     9    10 1   
    26     9    60 1   
    27     9    61 1   
    28    10    11 1   
    29    10    49 1   
    30    10    62 1   
    31    11    39 1   
    32    11    63 1   
    33    11    64 1   
    34    12    40 1   
    35    12    46 2   
    36    13    21 1   
    37    13    26 1   
    38    13    31 1   
    39    13    40 1   
    40    14    16 1   
    41    14    41 1   
    42    14    65 1   
    43    15    33 1   
    44    15    41 1   
    45    15    48 2   
    46    16    66 1   
    47    16    67 1   
    48    17    42 ar  
    49    17    49 1   
    50    18    68 1   
    51    19    69 1   
    52    20    50 1   
    53    20    70 1   
    54    20    71 1   
    55    20    72 1   
    56    21    44 1   
    57    21    51 2   
    58    22    23 1   
    59    22    24 1   
    60    22    25 1   
    61    22    55 1   
    62    23    24 1   
    63    23    76 1   
    64    23    77 1   
    65    24    78 1   
    66    24    79 1   
    67    25    80 1   
    68    25    81 1   
    69    25    82 1   
    70    26    27 1   
    71    26    31 1   
    72    26    83 1   
    73    27    28 2   
    74    27    84 1   
    75    28    29 1   
    76    28    85 1   
    77    29    30 1   
    78    29    86 1   
    79    29    87 1   
    80    30    32 1   
    81    30    88 1   
    82    30    89 1   
    83    31    90 1   
    84    31    91 1   
    85    32    92 1   
    86    32    93 1   
    87    33    34 1   
    88    33    45 1   
    89    33    94 1   
    90    34    35 1   
    91    34    36 1   
    92    34    95 1   
    93    35    37 1   
    94    35    96 1   
    95    35    97 1   
    96    36    98 1   
    97    36    99 1   
    98    36   100 1   
    99    37   101 1   
   100    37   102 1   
   101    37   103 1   
   102    38   104 1   
   103    38   105 1   
   104    38   106 1   
   105    38   112 1   
   106    40   107 1   
   107    41   108 1   
   108    44    55 1   
   109    44   109 1   
   110    45   110 1   
   111    45   112 1   
   112    52    55 2   
   113    53    55 2   
   114    54   112 2   
   115    73   111 1   
   116    74   111 1   
   117    75   111 1   
@<TRIPOS>SUBSTRUCTURE
     1 OM7         1 TEMP              0 ****  ****    0 ROOT
