@<TRIPOS>MOLECULE
OM8
   30    31     1     0     0
SMALL
bcc


@<TRIPOS>ATOM
      1 N          -21.7740    14.8120    20.1010 nt         1 OM8      -0.662000
      2 C          -20.8430    14.8000    21.0570 c          1 OM8       0.703700
      3 O          -21.0220    15.1460    22.2100 o          1 OM8      -0.571100
      4 C1         -19.4920    14.3150    20.6030 ca         1 OM8      -0.212600
      5 C10        -16.8610     6.3920    18.8320 ca         1 OM8      -0.115000
      6 C11        -18.0280     7.1280    18.9680 ca         1 OM8      -0.121000
      7 C12        -17.9880     8.5000    19.1800 ca         1 OM8      -0.098000
      8 C13        -19.2420    12.9760    20.4000 ca         1 OM8       0.155900
      9 C2         -18.4330    15.1980    20.4480 ca         1 OM8       0.161900
     10 C3         -17.1770    14.7700    20.0930 ca         1 OM8      -0.152000
     11 C4         -16.9520    13.4110    19.8980 ca         1 OM8      -0.158000
     12 C5         -17.9810    12.4910    20.0500 ca         1 OM8       0.087100
     13 C6         -16.6430    10.6400    19.4520 c3         1 OM8       0.186700
     14 C7         -16.7650     9.1540    19.2660 ca         1 OM8      -0.083300
     15 C8         -15.5880     8.4230    19.1370 ca         1 OM8      -0.121000
     16 C9         -15.6480     7.0580    18.9160 ca         1 OM8       0.029400
     17 F          -18.6680    16.5030    20.6370 f          1 OM8      -0.125900
     18 F1         -20.2430    12.1030    20.5530 f          1 OM8      -0.119900
     19 O1         -17.8760    11.1600    19.8960 os         1 OM8      -0.301900
     20 CL         -14.1720     6.1650    18.7420 cl         1 OM8      -0.109400
     21 HN2        -22.7120    15.1180    20.3050 hn         1 OM8       0.320500
     22 HN3        -21.5660    14.5480    19.1520 hn         1 OM8       0.320500
     23 H111       -18.9830     6.6230    18.9060 ha         1 OM8       0.139000
     24 H121       -18.9150     9.0480    19.2770 ha         1 OM8       0.154000
     25 H31        -16.3690    15.4780    19.9680 ha         1 OM8       0.159000
     26 H41        -15.9560    13.0890    19.6280 ha         1 OM8       0.145000
     27 H61        -15.8480    10.8580    20.1740 h1         1 OM8       0.046700
     28 H62        -16.3540    11.1040    18.5010 h1         1 OM8       0.046700
     29 H81        -14.6270     8.9190    19.2080 ha         1 OM8       0.144000
     30 H101       -16.8970     5.3240    18.6650 ha         1 OM8       0.150000
@<TRIPOS>BOND
     1     1     2 1   
     2     1    21 1   
     3     1    22 1   
     4     2     3 2   
     5     2     4 1   
     6     4     8 ar  
     7     4     9 ar  
     8     5     6 ar  
     9     5    16 ar  
    10     5    30 1   
    11     6     7 ar  
    12     6    23 1   
    13     7    14 ar  
    14     7    24 1   
    15     8    12 ar  
    16     8    18 1   
    17     9    10 ar  
    18     9    17 1   
    19    10    11 ar  
    20    10    25 1   
    21    11    12 ar  
    22    11    26 1   
    23    12    19 1   
    24    13    14 1   
    25    13    19 1   
    26    13    27 1   
    27    13    28 1   
    28    14    15 ar  
    29    15    16 ar  
    30    15    29 1   
    31    16    20 1   
@<TRIPOS>SUBSTRUCTURE
     1 OM8         1 TEMP              0 ****  ****    0 ROOT
