@<TRIPOS>MOLECULE
OM8
   30    31     1     0     0
SMALL
No Charge or Current Charge


@<TRIPOS>ATOM
      1 N          -21.7310    14.0580    21.4930 nt         1 OM8      -0.595000
      2 C          -20.6730    14.8920    21.4150 c          1 OM8       0.636700
      3 O          -20.7870    15.9950    21.9210 o          1 OM8      -0.571100
      4 C1         -19.4050    14.4130    20.7370 ca         1 OM8      -0.212600
      5 C10        -16.9670     6.4110    18.7940 ca         1 OM8      -0.097000
      6 C11        -17.4150     7.2060    17.7240 ca         1 OM8      -0.103000
      7 C12        -17.2930     8.6060    17.7890 ca         1 OM8      -0.080000
      8 C13        -19.1500    13.0370    20.4790 ca         1 OM8       0.191000
      9 C2         -18.4170    15.3470    20.3380 ca         1 OM8       0.197000
     10 C3         -17.2340    14.9290    19.7080 ca         1 OM8      -0.134000
     11 C4         -16.9970    13.5700    19.4590 ca         1 OM8      -0.140000
     12 C5         -17.9580    12.6150    19.8450 ca         1 OM8       0.087100
     13 C6         -16.5900    10.7340    18.9950 c3         1 OM8       0.209900
     14 C7         -16.7210     9.2190    18.9230 ca         1 OM8      -0.083300
     15 C8         -16.2760     8.4150    19.9930 ca         1 OM8      -0.103000
     16 C9         -16.3990     7.0170    19.9260 ca         1 OM8       0.121000
     17 F          -18.5850    16.6750    20.5230 f          1 OM8      -0.161000
     18 F1         -20.0310    12.0800    20.8560 f          1 OM8      -0.155000
     19 O1         -17.7700    11.2600    19.6280 os         1 OM8      -0.325100
     20 Cl         -15.8410     6.0240    21.2660 cl         1 OM8      -0.201000
     21 HN2        -22.5720    14.3710    21.9520 hn         1 OM8       0.320500
     22 HN3        -21.6710    13.1300    21.1010 hn         1 OM8       0.320500
     23 H111       -17.8570     6.7390    16.8470 ha         1 OM8       0.121000
     24 H121       -17.6450     9.2150    16.9590 ha         1 OM8       0.136000
     25 H31        -16.4980    15.6710    19.4090 ha         1 OM8       0.141000
     26 H41        -16.0700    13.2830    18.9690 ha         1 OM8       0.127000
     27 H61        -15.6930    10.9960    19.5700 h1         1 OM8       0.046700
     28 H62        -16.4800    11.1410    17.9820 h1         1 OM8       0.046700
     29 H81        -15.8370     8.8740    20.8760 ha         1 OM8       0.126000
     30 H101       -17.0610     5.3290    18.7460 ha         1 OM8       0.132000
@<TRIPOS>BOND
     1     1     2 1   
     2     1    21 1   
     3     1    22 1   
     4     2     3 2   
     5     2     4 1   
     6     4     8 ar  
     7     4     9 ar  
     8     5     6 ar  
     9     5    16 ar  
    10     5    30 1   
    11     6     7 ar  
    12     6    23 1   
    13     7    14 ar  
    14     7    24 1   
    15     8    12 ar  
    16     8    18 1   
    17     9    10 ar  
    18     9    17 1   
    19    10    11 ar  
    20    10    25 1   
    21    11    12 ar  
    22    11    26 1   
    23    12    19 1   
    24    13    14 1   
    25    13    19 1   
    26    13    27 1   
    27    13    28 1   
    28    14    15 ar  
    29    15    16 ar  
    30    15    29 1   
    31    16    20 1   
@<TRIPOS>SUBSTRUCTURE
     1 OM8         1 TEMP              0 ****  ****    0 ROOT
