@<TRIPOS>MOLECULE
OMA
   54    54     1     0     0
SMALL
No Charge or Current Charge


@<TRIPOS>ATOM
      1 O1         -10.1670     0.2960     0.3250 o          1 OMA      -0.744000
      2 C18         -9.5530     0.4000    -0.7260 c          1 OMA       0.716000
      3 O           -9.8930     1.1380    -1.6380 o          1 OMA      -0.744000
      4 C17         -8.2460    -0.3980    -0.8860 c3         1 OMA      -0.203400
      5 C16         -7.0460     0.4300    -0.3630 c3         1 OMA      -0.053400
      6 C15         -5.6950    -0.3090    -0.4920 c3         1 OMA      -0.079400
      7 C14         -4.5000     0.5190     0.0300 c3         1 OMA      -0.074400
      8 C13         -3.1500    -0.2200    -0.0980 c3         1 OMA      -0.075400
      9 C12         -1.9560     0.6080     0.4240 c3         1 OMA      -0.074400
     10 C11         -0.6060    -0.1310     0.2960 c3         1 OMA      -0.075400
     11 C10          0.5890     0.6970     0.8180 c3         1 OMA      -0.074400
     12 C9           1.9390    -0.0400     0.6900 c3         1 OMA      -0.047400
     13 C8           3.1130     0.7910     1.2070 cx         1 OMA      -0.109700
     14 C7           3.8540     1.7430     0.2960 cx         1 OMA      -0.133400
     15 C6           4.5520     0.5100     0.8290 cx         1 OMA      -0.118700
     16 C5           4.9570    -0.6290    -0.1030 c3         1 OMA      -0.012200
     17 C4           6.3670    -0.4220    -0.6170 c2         1 OMA      -0.209200
     18 C3           7.4100    -1.2290    -0.3660 c2         1 OMA      -0.227200
     19 C2           8.8190    -1.0210    -0.8810 c3         1 OMA      -0.040200
     20 C1           9.8210    -0.7510     0.2600 c3         1 OMA      -0.073400
     21 C           11.2630    -0.5320    -0.2380 c3         1 OMA      -0.089100
     22 H2          -8.2730    -1.3070    -0.2720 hc         1 OMA       0.014700
     23 H3          -8.0400    -0.5880    -1.9470 hc         1 OMA       0.014700
     24 H4          -6.9930     1.3760    -0.9170 hc         1 OMA       0.037700
     25 H5          -7.2170     0.6860     0.6900 hc         1 OMA       0.037700
     26 H6          -5.7470    -1.2540     0.0630 hc         1 OMA       0.023700
     27 H7          -5.5230    -0.5640    -1.5450 hc         1 OMA       0.023700
     28 H8          -4.4470     1.4640    -0.5240 hc         1 OMA       0.033700
     29 H9          -4.6720     0.7750     1.0840 hc         1 OMA       0.033700
     30 H10         -3.2030    -1.1650     0.4570 hc         1 OMA       0.031700
     31 H11         -2.9780    -0.4750    -1.1510 hc         1 OMA       0.031700
     32 H12         -1.9030     1.5530    -0.1300 hc         1 OMA       0.035700
     33 H13         -2.1280     0.8640     1.4770 hc         1 OMA       0.035700
     34 H14         -0.6580    -1.0760     0.8510 hc         1 OMA       0.034700
     35 H15         -0.4340    -0.3860    -0.7570 hc         1 OMA       0.034700
     36 H16          0.6420     1.6420     0.2630 hc         1 OMA       0.037700
     37 H17          0.4160     0.9540     1.8710 hc         1 OMA       0.037700
     38 H18          1.8890    -0.9820     1.2510 hc         1 OMA       0.040200
     39 H19          2.0890    -0.3090    -0.3620 hc         1 OMA       0.040200
     40 H20          2.9530     1.1230     2.2300 hc         1 OMA       0.072700
     41 H21          3.5800     1.7600    -0.7560 hc         1 OMA       0.069200
     42 H22          4.1490     2.7070     0.7040 hc         1 OMA       0.069200
     43 H23          5.2840     0.6650     1.6190 hc         1 OMA       0.072700
     44 H24          4.8810    -1.5810     0.4360 hc         1 OMA       0.048200
     45 H25          4.2710    -0.7010    -0.9560 hc         1 OMA       0.048200
     46 H26          6.4910     0.4690    -1.2350 ha         1 OMA       0.166000
     47 H27          7.2840    -2.1200     0.2520 ha         1 OMA       0.164000
     48 H28          9.1410    -1.9060    -1.4430 hc         1 OMA       0.041200
     49 H29          8.8470    -0.1790    -1.5850 hc         1 OMA       0.041200
     50 H30          9.4990     0.1340     0.8230 hc         1 OMA       0.039200
     51 H31          9.8100    -1.5960     0.9600 hc         1 OMA       0.039200
     52 H32         11.6270    -1.4150    -0.7760 hc         1 OMA       0.030033
     53 H33         11.3130     0.3310    -0.9130 hc         1 OMA       0.030033
     54 H34         11.9350    -0.3450     0.6080 hc         1 OMA       0.030033
@<TRIPOS>BOND
     1     1     2 1   
     2     2     3 1   
     3     2     4 1   
     4     4     5 1   
     5     4    22 1   
     6     4    23 1   
     7     5     6 1   
     8     5    24 1   
     9     5    25 1   
    10     6     7 1   
    11     6    26 1   
    12     6    27 1   
    13     7     8 1   
    14     7    28 1   
    15     7    29 1   
    16     8     9 1   
    17     8    30 1   
    18     8    31 1   
    19     9    10 1   
    20     9    32 1   
    21     9    33 1   
    22    10    11 1   
    23    10    34 1   
    24    10    35 1   
    25    11    12 1   
    26    11    36 1   
    27    11    37 1   
    28    12    13 1   
    29    12    38 1   
    30    12    39 1   
    31    13    14 1   
    32    13    15 1   
    33    13    40 1   
    34    14    15 1   
    35    14    41 1   
    36    14    42 1   
    37    15    16 1   
    38    15    43 1   
    39    16    17 1   
    40    16    44 1   
    41    16    45 1   
    42    17    18 2   
    43    17    46 1   
    44    18    19 1   
    45    18    47 1   
    46    19    20 1   
    47    19    48 1   
    48    19    49 1   
    49    20    21 1   
    50    20    50 1   
    51    20    51 1   
    52    21    52 1   
    53    21    53 1   
    54    21    54 1   
@<TRIPOS>SUBSTRUCTURE
     1 OMA         1 TEMP              0 ****  ****    0 ROOT
