@<TRIPOS>MOLECULE
OMA
   54    54     1     0     0
SMALL
bcc


@<TRIPOS>ATOM
      1 O1         -10.4180    -0.7080    -1.1060 o          1 OMA      -0.849300
      2 C18         -9.5110    -0.0000    -0.6170 c          1 OMA       0.926600
      3 O           -9.6720     1.0220     0.0790 o          1 OMA      -0.849300
      4 C17         -8.0720    -0.4420    -0.9310 c3         1 OMA      -0.203400
      5 C16         -6.9620     0.3100    -0.2160 c3         1 OMA      -0.053400
      6 C15         -5.5760    -0.2090    -0.5800 c3         1 OMA      -0.079400
      7 C14         -4.4410     0.5560     0.0890 c3         1 OMA      -0.074400
      8 C13         -3.0720    -0.0660    -0.1600 c3         1 OMA      -0.075400
      9 C12         -1.9170     0.7590     0.3950 c3         1 OMA      -0.074400
     10 C11         -0.5750     0.0440     0.3020 c3         1 OMA      -0.075400
     11 C10          0.6080     0.9120     0.7130 c3         1 OMA      -0.074400
     12 C9           1.9250     0.1440     0.7420 c3         1 OMA      -0.047400
     13 C8           3.0980     1.0300     1.0800 cx         1 OMA      -0.109700
     14 C7           3.8720     1.7260    -0.0020 cx         1 OMA      -0.133400
     15 C6           4.5230     0.6420     0.8080 cx         1 OMA      -0.118700
     16 C5           4.9080    -0.6770     0.1760 c3         1 OMA      -0.012200
     17 C4           6.2520    -0.5950    -0.4790 c2         1 OMA      -0.159200
     18 C3           7.3180    -1.3100    -0.1310 c2         1 OMA      -0.177200
     19 C2           8.6720    -1.2040    -0.7560 c3         1 OMA      -0.040200
     20 C1           9.7400    -0.7440     0.2380 c3         1 OMA      -0.073400
     21 C           11.1300    -0.6860    -0.3790 c3         1 OMA      -0.089100
     22 H2          -7.9860    -1.5140    -0.7220 hc         1 OMA       0.014700
     23 H3          -7.9280    -0.3570    -2.0160 hc         1 OMA       0.014700
     24 H4          -7.0260     1.3760    -0.4510 hc         1 OMA       0.037700
     25 H5          -7.0980     0.2340     0.8670 hc         1 OMA       0.037700
     26 H6          -5.5050    -1.2690    -0.3110 hc         1 OMA       0.023700
     27 H7          -5.4450    -0.1700    -1.6670 hc         1 OMA       0.023700
     28 H8          -4.4440     1.5930    -0.2630 hc         1 OMA       0.033700
     29 H9          -4.6190     0.6050     1.1700 hc         1 OMA       0.033700
     30 H10         -3.0510    -1.0680     0.2820 hc         1 OMA       0.031700
     31 H11         -2.9260    -0.2080    -1.2370 hc         1 OMA       0.031700
     32 H12         -1.8640     1.7110    -0.1450 hc         1 OMA       0.035700
     33 H13         -2.1180     1.0150     1.4410 hc         1 OMA       0.035700
     34 H14         -0.6030    -0.8530     0.9310 hc         1 OMA       0.034700
     35 H15         -0.4190    -0.3100    -0.7230 hc         1 OMA       0.034700
     36 H16          0.6950     1.7570     0.0220 hc         1 OMA       0.037700
     37 H17          0.4180     1.3450     1.7020 hc         1 OMA       0.037700
     38 H18          1.8530    -0.6700     1.4720 hc         1 OMA       0.040200
     39 H19          2.0770    -0.3330    -0.2310 hc         1 OMA       0.040200
     40 H20          2.9560     1.6060     1.9900 hc         1 OMA       0.072700
     41 H21          3.6080     1.4890    -1.0280 hc         1 OMA       0.069200
     42 H22          4.1840     2.7520     0.1470 hc         1 OMA       0.069200
     43 H23          5.2380     0.9850     1.5500 hc         1 OMA       0.072700
     44 H24          4.9080    -1.4680     0.9320 hc         1 OMA       0.048200
     45 H25          4.1610    -0.9620    -0.5720 hc         1 OMA       0.048200
     46 H26          6.3430     0.1280    -1.2880 ha         1 OMA       0.116000
     47 H27          7.2240    -2.0250     0.6850 ha         1 OMA       0.114000
     48 H28          8.9690    -2.1790    -1.1590 hc         1 OMA       0.041200
     49 H29          8.6400    -0.5140    -1.6050 hc         1 OMA       0.041200
     50 H30          9.4650     0.2400     0.6270 hc         1 OMA       0.039200
     51 H31          9.7490    -1.4210     1.0980 hc         1 OMA       0.039200
     52 H32         11.4430    -1.6680    -0.7410 hc         1 OMA       0.030033
     53 H33         11.1590     0.0010    -1.2270 hc         1 OMA       0.030033
     54 H34         11.8720    -0.3490     0.3450 hc         1 OMA       0.030033
@<TRIPOS>BOND
     1     1     2 1   
     2     2     3 1   
     3     2     4 1   
     4     4     5 1   
     5     4    22 1   
     6     4    23 1   
     7     5     6 1   
     8     5    24 1   
     9     5    25 1   
    10     6     7 1   
    11     6    26 1   
    12     6    27 1   
    13     7     8 1   
    14     7    28 1   
    15     7    29 1   
    16     8     9 1   
    17     8    30 1   
    18     8    31 1   
    19     9    10 1   
    20     9    32 1   
    21     9    33 1   
    22    10    11 1   
    23    10    34 1   
    24    10    35 1   
    25    11    12 1   
    26    11    36 1   
    27    11    37 1   
    28    12    13 1   
    29    12    38 1   
    30    12    39 1   
    31    13    14 1   
    32    13    15 1   
    33    13    40 1   
    34    14    15 1   
    35    14    41 1   
    36    14    42 1   
    37    15    16 1   
    38    15    43 1   
    39    16    17 1   
    40    16    44 1   
    41    16    45 1   
    42    17    18 2   
    43    17    46 1   
    44    18    19 1   
    45    18    47 1   
    46    19    20 1   
    47    19    48 1   
    48    19    49 1   
    49    20    21 1   
    50    20    50 1   
    51    20    51 1   
    52    21    52 1   
    53    21    53 1   
    54    21    54 1   
@<TRIPOS>SUBSTRUCTURE
     1 OMA         1 TEMP              0 ****  ****    0 ROOT
