@<TRIPOS>MOLECULE
OMB
    4     3     1     0     0
SMALL
bcc


@<TRIPOS>ATOM
      1 O            0.0390    -0.0420    -0.6400 o          1 OMB      -0.507100
      2 C            0.1330     0.2200     0.5300 c          1 OMB       0.574700
      3 HC1          0.9910    -0.1060     1.1380 h4         1 OMB      -0.033800
      4 HC2         -0.6310     0.8030     1.0660 h4         1 OMB      -0.033800
@<TRIPOS>BOND
     1     1     2 2   
     2     2     3 1   
     3     2     4 1   
@<TRIPOS>SUBSTRUCTURE
     1 OMB         1 TEMP              0 ****  ****    0 ROOT
