@<TRIPOS>MOLECULE
OMB
    4     3     1     0     0
SMALL
No Charge or Current Charge


@<TRIPOS>ATOM
      1 O            0.0370    -0.0450    -0.6550 o          1 OMB      -0.507100
      2 C            0.1340     0.2220     0.5400 c          1 OMB       0.574700
      3 HC1          1.0070    -0.1140     1.1410 h4         1 OMB      -0.033800
      4 HC2         -0.6470     0.8120     1.0680 h4         1 OMB      -0.033800
@<TRIPOS>BOND
     1     1     2 2   
     2     2     3 1   
     3     2     4 1   
@<TRIPOS>SUBSTRUCTURE
     1 OMB         1 TEMP              0 ****  ****    0 ROOT
