@<TRIPOS>MOLECULE
OMC
   36    37     1     0     0
SMALL
abcg2


@<TRIPOS>ATOM
      1 N1          -0.2040    -0.5290    -2.2420 n          1 OMC      -0.298000
      2 C2          -1.1550     0.4890    -2.0300 c          1 OMC       0.701400
      3 N3          -2.1490     0.6290    -2.9330 nc         1 OMC      -0.767100
      4 C4          -2.2320    -0.1500    -3.9920 cd         1 OMC       0.773500
      5 C5          -1.2820    -1.1880    -4.2440 cd         1 OMC      -0.528600
      6 C6          -0.3030    -1.3310    -3.3330 cc         1 OMC       0.045600
      7 O2          -1.0580     1.2140    -1.0520 o          1 OMC      -0.465000
      8 N4          -3.2360     0.0430    -4.8460 nv         1 OMC      -1.058200
      9 C1           0.8780    -0.7780    -1.3050 c5         1 OMC       0.342700
     10 C7           1.8340     0.3850    -1.0470 c5         1 OMC       0.119300
     11 O1           2.7340     0.4730    -2.1070 os         1 OMC      -0.451000
     12 CM2          3.5890     1.5880    -2.0240 c3         1 OMC       0.157900
     13 C3           2.4230    -0.0220     0.3060 c5         1 OMC       0.092300
     14 C8           1.2120    -0.6670     0.9900 c5         1 OMC       0.123300
     15 O4           0.3810    -1.1690    -0.0640 os         1 OMC      -0.405000
     16 O3           3.4620    -0.9380     0.0600 oh         1 OMC      -0.737000
     17 C9           0.4540     0.2890     1.8880 c3         1 OMC       0.245600
     18 O5          -0.6540    -0.3570     2.4340 os         1 OMC      -0.560400
     19 P           -1.2280     0.2390     3.9280 p5         1 OMC       1.269900
     20 OP1         -1.4340     1.7340     3.7020 o          1 OMC      -0.925167
     21 OP2         -2.5050    -0.5760     4.0890 o          1 OMC      -0.925167
     22 OP3         -0.1260    -0.0890     4.9300 o          1 OMC      -0.925167
     23 H5          -1.3440    -1.8330    -5.1070 ha         1 OMC       0.179000
     24 H6           0.4520    -2.0990    -3.4320 h4         1 OMC       0.189000
     25 HN41        -3.9260     0.7520    -4.6640 hn         1 OMC       0.486000
     26 HN42        -3.3540    -0.5350    -5.6580 hn         1 OMC       0.486000
     27 H1           1.4610    -1.5890    -1.7610 h2         1 OMC       0.037700
     28 H2           1.2850     1.3250    -0.9200 h1         1 OMC       0.095700
     29 HM21         4.1920     1.6100    -2.9310 h1         1 OMC       0.020033
     30 HM22         3.0280     2.5270    -1.9580 h1         1 OMC       0.020033
     31 HM23         4.2630     1.5320    -1.1640 h1         1 OMC       0.020033
     32 H3           2.7820     0.8430     0.8800 h1         1 OMC       0.059700
     33 H4           1.5400    -1.5210     1.5950 h1         1 OMC       0.067700
     34 HO3          3.8090    -1.2330     0.9070 ho         1 OMC       0.500000
     35 H7           1.1620     0.6140     2.6640 h1         1 OMC       0.007200
     36 H5'          0.1650     1.1850     1.3250 h1         1 OMC       0.007200
@<TRIPOS>BOND
     1     1     2 1   
     2     1     6 1   
     3     1     9 1   
     4     2     3 1   
     5     2     7 2   
     6     3     4 2   
     7     4     5 1   
     8     4     8 1   
     9     5     6 2   
    10     5    23 1   
    11     6    24 1   
    12     8    25 1   
    13     8    26 1   
    14     9    10 1   
    15     9    15 1   
    16     9    27 1   
    17    10    11 1   
    18    10    13 1   
    19    10    28 1   
    20    11    12 1   
    21    12    29 1   
    22    12    30 1   
    23    12    31 1   
    24    13    14 1   
    25    13    16 1   
    26    13    32 1   
    27    14    15 1   
    28    14    17 1   
    29    14    33 1   
    30    16    34 1   
    31    17    18 1   
    32    17    35 1   
    33    17    36 1   
    34    18    19 1   
    35    19    20 1   
    36    19    21 1   
    37    19    22 1   
@<TRIPOS>SUBSTRUCTURE
     1 OMC         1 TEMP              0 ****  ****    0 ROOT
