@<TRIPOS>MOLECULE
OMC
   36    37     1     0     0
SMALL
No Charge or Current Charge


@<TRIPOS>ATOM
      1 N1          -0.3490    -0.6170    -2.4280 n          1 OMC      -0.298000
      2 C2          -1.5360     0.1390    -2.3000 c          1 OMC       0.701400
      3 N3          -2.2810     0.3690    -3.4290 nc         1 OMC      -0.767100
      4 C4          -1.8890    -0.0790    -4.5710 cd         1 OMC       0.773500
      5 C5          -0.7110    -0.8180    -4.7770 cd         1 OMC      -0.528600
      6 C6           0.0650    -1.0790    -3.6740 cc         1 OMC       0.045600
      7 O2          -1.9070     0.6170    -1.2420 o          1 OMC      -0.465000
      8 N4          -2.6800     0.1920    -5.5880 nv         1 OMC      -1.058200
      9 C1           0.4700    -0.9700    -1.2360 c5         1 OMC       0.342700
     10 C7           1.3340     0.2560    -0.8430 c5         1 OMC       0.119300
     11 O1           2.4990     0.3770    -1.7140 os         1 OMC      -0.451000
     12 CM2          3.4180     1.4470    -1.4330 c3         1 OMC       0.157900
     13 C3           1.7540    -0.1960     0.5970 c5         1 OMC       0.092300
     14 C8           0.3610    -0.7150     1.1070 c5         1 OMC       0.123300
     15 O4          -0.2940    -1.3090    -0.0560 os         1 OMC      -0.405000
     16 O3           2.7330    -1.2560     0.6250 oh         1 OMC      -0.737000
     17 C9          -0.5540     0.3880     1.7290 c3         1 OMC       0.245600
     18 O5          -0.5700     0.3120     3.1670 os         1 OMC      -0.560400
     19 P            0.7420     0.5940     4.0610 p5         1 OMC       1.269900
     20 OP1          1.3030     1.9260     3.7090 o          1 OMC      -0.925167
     21 OP2          0.3390     0.5990     5.4930 o          1 OMC      -0.925167
     22 OP3          1.7610    -0.4680     3.8470 o          1 OMC      -0.925167
     23 H5          -0.4270    -1.1630    -5.7640 ha         1 OMC       0.179000
     24 H6           1.0040    -1.6290    -3.6580 h4         1 OMC       0.189000
     25 HN41        -3.6100     0.4750    -5.3100 hn         1 OMC       0.486000
     26 HN42        -2.6240    -0.4440    -6.3720 hn         1 OMC       0.486000
     27 H1           1.1070    -1.8200    -1.5080 h2         1 OMC       0.037700
     28 H2           0.7560     1.1900    -0.8410 h1         1 OMC       0.095700
     29 HM21         4.2270     1.4580    -2.1740 h1         1 OMC       0.020033
     30 HM22         2.9070     2.4170    -1.4690 h1         1 OMC       0.020033
     31 HM23         3.8700     1.3280    -0.4390 h1         1 OMC       0.020033
     32 H3           2.1040     0.6610     1.1900 h1         1 OMC       0.059700
     33 H4           0.4790    -1.5130     1.8510 h1         1 OMC       0.067700
     34 HO3          2.9180    -1.4280     1.5800 ho         1 OMC       0.500000
     35 H7          -0.2250     1.3810     1.3940 h1         1 OMC       0.007200
     36 H5'         -1.5780     0.2440     1.3600 h1         1 OMC       0.007200
@<TRIPOS>BOND
     1     1     2 1   
     2     1     6 1   
     3     1     9 1   
     4     2     3 1   
     5     2     7 2   
     6     3     4 2   
     7     4     5 1   
     8     4     8 1   
     9     5     6 2   
    10     5    23 1   
    11     6    24 1   
    12     8    25 1   
    13     8    26 1   
    14     9    10 1   
    15     9    15 1   
    16     9    27 1   
    17    10    11 1   
    18    10    13 1   
    19    10    28 1   
    20    11    12 1   
    21    12    29 1   
    22    12    30 1   
    23    12    31 1   
    24    13    14 1   
    25    13    16 1   
    26    13    32 1   
    27    14    15 1   
    28    14    17 1   
    29    14    33 1   
    30    16    34 1   
    31    17    18 1   
    32    17    35 1   
    33    17    36 1   
    34    18    19 1   
    35    19    20 1   
    36    19    21 1   
    37    19    22 1   
@<TRIPOS>SUBSTRUCTURE
     1 OMC         1 TEMP              0 ****  ****    0 ROOT
