@<TRIPOS>MOLECULE
OMD
   19    19     1     0     0
SMALL
abcg2


@<TRIPOS>ATOM
      1 C1           0.2910     0.1290     2.5000 c          1 OMD       0.732000
      2 C2           0.3040    -1.0210     1.4650 c3         1 OMD      -0.180100
      3 C7           0.0320    -0.5940     0.0580 ca         1 OMD       0.019700
      4 C8           1.0270    -0.6190    -0.9080 ca         1 OMD      -0.124000
      5 C3           0.7840    -0.2280    -2.2230 ca         1 OMD       0.089100
      6 O3           1.8160    -0.2850    -3.1020 oh         1 OMD      -0.550100
      7 C4          -0.4880     0.1950    -2.5780 ca         1 OMD      -0.199000
      8 C5          -1.4970     0.2250    -1.6210 ca         1 OMD      -0.182000
      9 C6          -1.2470    -0.1620    -0.3130 ca         1 OMD       0.114100
     10 O6          -2.2050    -0.1520     0.6470 oh         1 OMD      -0.504100
     11 O1           0.4360     1.2870     2.0710 o          1 OMD      -0.729500
     12 O2           0.1720    -0.2190     3.6920 o          1 OMD      -0.729500
     13 H21          1.2940    -1.4870     1.5080 hc         1 OMD       0.034200
     14 H22         -0.4000    -1.7960     1.7800 hc         1 OMD       0.034200
     15 H2           2.0210    -0.9530    -0.6310 ha         1 OMD       0.121000
     16 HO3          1.5240     0.0060    -3.9720 ho         1 OMD       0.442000
     17 H4          -0.7090     0.4980    -3.5950 ha         1 OMD       0.088000
     18 H5          -2.4880     0.5560    -1.9110 ha         1 OMD       0.090000
     19 HO6         -3.0440     0.1380     0.2730 ho         1 OMD       0.435000
@<TRIPOS>BOND
     1     1     2 1   
     2     1    11 1   
     3     1    12 1   
     4     2     3 1   
     5     2    13 1   
     6     2    14 1   
     7     3     4 ar  
     8     3     9 ar  
     9     4     5 ar  
    10     4    15 1   
    11     5     6 1   
    12     5     7 ar  
    13     6    16 1   
    14     7     8 ar  
    15     7    17 1   
    16     8     9 ar  
    17     8    18 1   
    18     9    10 1   
    19    10    19 1   
@<TRIPOS>SUBSTRUCTURE
     1 OMD         1 TEMP              0 ****  ****    0 ROOT
