@<TRIPOS>MOLECULE
OMD
   19    19     1     0     0
SMALL
No Charge or Current Charge


@<TRIPOS>ATOM
      1 C1           0.6570     0.2190     2.3880 c          1 OMD       0.732000
      2 C2           0.3630    -1.0350     1.5500 c3         1 OMD      -0.180100
      3 C7          -0.0030    -0.6180     0.1200 ca         1 OMD       0.019700
      4 C8           1.0340    -0.4000    -0.8120 ca         1 OMD      -0.124000
      5 C3           0.7440    -0.0180    -2.1300 ca         1 OMD       0.089100
      6 O3           1.7570     0.1880    -3.0170 oh         1 OMD      -0.550100
      7 C4          -0.5860     0.1520    -2.5390 ca         1 OMD      -0.199000
      8 C5          -1.6310    -0.0610    -1.6240 ca         1 OMD      -0.182000
      9 C6          -1.3480    -0.4440    -0.3000 ca         1 OMD       0.114100
     10 O6          -2.3950    -0.6450     0.5560 oh         1 OMD      -0.504100
     11 O1           1.7890     0.6790     2.3530 o          1 OMD      -0.729500
     12 O2          -0.2720     0.7630     2.9670 o          1 OMD      -0.729500
     13 H21          1.2660    -1.6520     1.4760 hc         1 OMD       0.034200
     14 H22         -0.4830    -1.5850     1.9760 hc         1 OMD       0.034200
     15 H2           2.0700    -0.5260    -0.5090 ha         1 OMD       0.121000
     16 HO3          1.3640     0.4470    -3.8780 ho         1 OMD       0.442000
     17 H4          -0.8160     0.4480    -3.5600 ha         1 OMD       0.088000
     18 H5          -2.6600     0.0720    -1.9490 ha         1 OMD       0.090000
     19 HO6         -3.2280    -0.4650     0.0720 ho         1 OMD       0.435000
@<TRIPOS>BOND
     1     1     2 1   
     2     1    11 1   
     3     1    12 1   
     4     2     3 1   
     5     2    13 1   
     6     2    14 1   
     7     3     4 ar  
     8     3     9 ar  
     9     4     5 ar  
    10     4    15 1   
    11     5     6 1   
    12     5     7 ar  
    13     6    16 1   
    14     7     8 ar  
    15     7    17 1   
    16     8     9 ar  
    17     8    18 1   
    18     9    10 1   
    19    10    19 1   
@<TRIPOS>SUBSTRUCTURE
     1 OMD         1 TEMP              0 ****  ****    0 ROOT
