@<TRIPOS>MOLECULE
OMF
   26    27     1     0     0
SMALL
No Charge or Current Charge


@<TRIPOS>ATOM
      1 O1           4.8650    21.3220     1.2210 os         1 OMF      -0.320100
      2 C1           3.1930    24.3400    -1.2370 cp         1 OMF      -0.078000
      3 C2           2.3950    23.5810    -0.3450 ca         1 OMF      -0.053000
      4 C3           2.9600    22.5820     0.4670 ca         1 OMF       0.075000
      5 C4           4.3430    22.3130     0.4070 ca         1 OMF       0.161100
      6 C5           5.1520    23.0600    -0.4770 ca         1 OMF      -0.196000
      7 C6           4.5810    24.0580    -1.2860 ca         1 OMF      -0.052000
      8 C8           2.5880    25.4030    -2.1000 cp         1 OMF      -0.002000
      9 C9           1.2930    25.2500    -2.6530 ca         1 OMF      -0.093500
     10 C10          0.7230    26.2460    -3.4640 ca         1 OMF       0.125000
     11 C11          1.4380    27.4280    -3.7420 ca         1 OMF       0.113000
     12 C12          2.7280    27.5990    -3.2000 ca         1 OMF       0.125000
     13 C13          3.2930    26.5980    -2.3910 ca         1 OMF      -0.093500
     14 C7           6.2630    20.9830     1.2230 c3         1 OMF       0.145900
     15 H1           1.3290    23.7760    -0.2670 ha         1 OMF       0.133000
     16 H2           6.2200    22.8800    -0.5550 ha         1 OMF       0.124000
     17 H3           5.2220    24.6100    -1.9690 ha         1 OMF       0.119000
     18 H4           0.7260    24.3420    -2.4650 ha         1 OMF       0.137000
     19 H5           4.2830    26.7590    -1.9740 ha         1 OMF       0.137000
     20 H6           6.4560    20.1750     1.9400 h1         1 OMF       0.045700
     21 H7           6.5840    20.6410     0.2310 h1         1 OMF       0.045700
     22 H8           6.8730    21.8480     1.5140 h1         1 OMF       0.045700
     23 Cl1          1.9110    21.6770     1.5610 cl         1 OMF      -0.178000
     24 Cl2         -0.8930    25.9840    -4.1230 cl         1 OMF      -0.164500
     25 Cl3          3.6610    29.0630    -3.5160 cl         1 OMF      -0.164500
     26 Cl4          0.7240    28.6860    -4.7620 cl         1 OMF      -0.140000
@<TRIPOS>BOND
     1     1     5 1   
     2     1    14 1   
     3     2     3 ar  
     4     2     7 ar  
     5     2     8 1   
     6     3     4 ar  
     7     3    15 1   
     8     4     5 ar  
     9     4    23 1   
    10     5     6 ar  
    11     6     7 ar  
    12     6    16 1   
    13     7    17 1   
    14     8     9 ar  
    15     8    13 ar  
    16     9    10 ar  
    17     9    18 1   
    18    10    11 ar  
    19    10    24 1   
    20    11    12 ar  
    21    11    26 1   
    22    12    13 ar  
    23    12    25 1   
    24    13    19 1   
    25    14    20 1   
    26    14    21 1   
    27    14    22 1   
@<TRIPOS>SUBSTRUCTURE
     1 OMF         1 TEMP              0 ****  ****    0 ROOT
