@<TRIPOS>MOLECULE
OMF
   26    27     1     0     0
SMALL
abcg2


@<TRIPOS>ATOM
      1 O1           4.8020    21.3640     1.1800 os         1 OMF      -0.320100
      2 C1           3.2050    24.3400    -1.2350 cp         1 OMF      -0.078000
      3 C2           2.4160    23.5930    -0.3600 ca         1 OMF      -0.053000
      4 C3           2.9800    22.6110     0.4280 ca         1 OMF       0.075000
      5 C4           4.3510    22.3320     0.3790 ca         1 OMF       0.161100
      6 C5           5.1360    23.0780    -0.4970 ca         1 OMF      -0.196000
      7 C6           4.5670    24.0650    -1.2870 ca         1 OMF      -0.052000
      8 C8           2.6040    25.3870    -2.0800 cp         1 OMF      -0.002000
      9 C9           1.3290    25.2240    -2.6170 ca         1 OMF      -0.093500
     10 C10          0.7710    26.2080    -3.4140 ca         1 OMF       0.125000
     11 C11          1.4690    27.3770    -3.7040 ca         1 OMF       0.113000
     12 C12          2.7430    27.5340    -3.1660 ca         1 OMF       0.125000
     13 C13          3.3030    26.5580    -2.3630 ca         1 OMF      -0.093500
     14 C7           6.1870    21.0650     1.1670 c3         1 OMF       0.145900
     15 H1           1.3550    23.7890    -0.2710 ha         1 OMF       0.133000
     16 H2           6.1970    22.8920    -0.5830 ha         1 OMF       0.124000
     17 H3           5.2080    24.6070    -1.9700 ha         1 OMF       0.119000
     18 H4           0.7680    24.3180    -2.4340 ha         1 OMF       0.137000
     19 H5           4.2840    26.7270    -1.9410 ha         1 OMF       0.137000
     20 H6           6.3310    20.2590     1.8810 h1         1 OMF       0.045700
     21 H7           6.5210    20.7300     0.1830 h1         1 OMF       0.045700
     22 H8           6.7890    21.9230     1.4760 h1         1 OMF       0.045700
     23 CL1          1.9840    21.7050     1.5110 cl         1 OMF      -0.178000
     24 CL2         -0.8020    25.9630    -4.0640 cl         1 OMF      -0.164500
     25 CL3          3.6380    28.9690    -3.4850 cl         1 OMF      -0.164500
     26 CL4          0.7770    28.5880    -4.6950 cl         1 OMF      -0.140000
@<TRIPOS>BOND
     1     1     5 1   
     2     1    14 1   
     3     2     3 ar  
     4     2     7 ar  
     5     2     8 1   
     6     3     4 ar  
     7     3    15 1   
     8     4     5 ar  
     9     4    23 1   
    10     5     6 ar  
    11     6     7 ar  
    12     6    16 1   
    13     7    17 1   
    14     8     9 ar  
    15     8    13 ar  
    16     9    10 ar  
    17     9    18 1   
    18    10    11 ar  
    19    10    24 1   
    20    11    12 ar  
    21    11    26 1   
    22    12    13 ar  
    23    12    25 1   
    24    13    19 1   
    25    14    20 1   
    26    14    21 1   
    27    14    22 1   
@<TRIPOS>SUBSTRUCTURE
     1 OMF         1 TEMP              0 ****  ****    0 ROOT
