@<TRIPOS>MOLECULE
OMG
   39    41     1     0     0
SMALL
bcc


@<TRIPOS>ATOM
      1 P           -1.8300     0.1790     3.6700 p5         1 OMG       1.269900
      2 OP1         -2.3340     0.7930     2.3610 o          1 OMG      -0.914500
      3 OP2         -2.6500    -0.9950     4.1830 o          1 OMG      -0.914500
      4 OP3         -1.4310     1.2120     4.7170 o          1 OMG      -0.914500
      5 O5          -0.3750    -0.6060     3.2510 os         1 OMG      -0.540200
      6 C5           0.6590     0.1850     2.7620 c3         1 OMG       0.218400
      7 C4           1.5480    -0.6530     1.8590 c5         1 OMG       0.090100
      8 O4           0.7930    -1.2440     0.7930 os         1 OMG      -0.362600
      9 C3           2.6400     0.1670     1.1750 c5         1 OMG       0.065100
     10 O3           3.7310    -0.6140     0.7570 oh         1 OMG      -0.598800
     11 C2           1.8980     0.6300    -0.0790 c5         1 OMG       0.094100
     12 O2           2.6790     0.9730    -1.1750 os         1 OMG      -0.380600
     13 CM2          3.3800     2.1850    -1.0100 c3         1 OMG       0.131700
     14 C1           1.0560    -0.6040    -0.4160 c5         1 OMG       0.270800
     15 N9          -0.1890    -0.2850    -1.0800 na         1 OMG      -0.203900
     16 C8          -1.3430     0.2050    -0.5100 cc         1 OMG       0.476400
     17 N7          -2.2680     0.4330    -1.3960 nd         1 OMG      -0.626000
     18 C7          -1.7070     0.0880    -2.5980 cd         1 OMG       0.170800
     19 C6          -2.2430     0.1230    -3.9170 c          1 OMG       0.659000
     20 O6          -3.3490     0.4840    -4.2860 o          1 OMG      -0.636500
     21 N1          -1.3000    -0.3370    -4.8450 ns         1 OMG      -0.526400
     22 C10         -0.0370    -0.7720    -4.5600 cd         1 OMG       0.672800
     23 N2           0.7290    -1.1400    -5.6010 nv         1 OMG      -0.949800
     24 N3           0.4500    -0.8030    -3.3470 nc         1 OMG      -0.660100
     25 C9          -0.4130    -0.3640    -2.4180 cc         1 OMG       0.069800
     26 H5           1.2930     0.5840     3.5700 h1         1 OMG      -0.004800
     27 H5'          0.2890     1.0580     2.2060 h1         1 OMG      -0.004800
     28 H4           1.9800    -1.4700     2.4460 h1         1 OMG       0.064700
     29 H3           2.9610     1.0060     1.8060 h1         1 OMG       0.048700
     30 HO3          4.1860    -0.9390     1.5400 ho         1 OMG       0.390000
     31 H2           1.2320     1.4610     0.2010 h1         1 OMG       0.079700
     32 HM21         3.9150     2.3810    -1.9380 h1         1 OMG       0.019367
     33 HM22         2.7010     3.0230    -0.8170 h1         1 OMG       0.019367
     34 HM23         4.1080     2.1380    -0.1960 h1         1 OMG       0.019367
     35 H1           1.6090    -1.2550    -1.1030 h2         1 OMG       0.083700
     36 H8          -1.4710     0.3510     0.5620 h5         1 OMG       0.182100
     37 HN1         -1.5990    -0.3300    -5.8120 hn         1 OMG       0.294500
     38 HN21         1.5840    -1.6260    -5.3900 hn         1 OMG       0.422300
     39 HN22         0.3100    -1.3550    -6.4910 hn         1 OMG       0.422300
@<TRIPOS>BOND
     1     1     2 1   
     2     1     3 1   
     3     1     4 1   
     4     1     5 1   
     5     5     6 1   
     6     6     7 1   
     7     6    26 1   
     8     6    27 1   
     9     7     8 1   
    10     7     9 1   
    11     7    28 1   
    12     8    14 1   
    13     9    10 1   
    14     9    11 1   
    15     9    29 1   
    16    10    30 1   
    17    11    12 1   
    18    11    14 1   
    19    11    31 1   
    20    12    13 1   
    21    13    32 1   
    22    13    33 1   
    23    13    34 1   
    24    14    15 1   
    25    14    35 1   
    26    15    16 1   
    27    15    25 1   
    28    16    17 2   
    29    16    36 1   
    30    17    18 1   
    31    18    19 1   
    32    18    25 2   
    33    19    20 2   
    34    19    21 1   
    35    21    22 1   
    36    21    37 1   
    37    22    23 1   
    38    22    24 2   
    39    23    38 1   
    40    23    39 1   
    41    24    25 1   
@<TRIPOS>SUBSTRUCTURE
     1 OMG         1 TEMP              0 ****  ****    0 ROOT
