@<TRIPOS>MOLECULE
OMG
   39    41     1     0     0
SMALL
No Charge or Current Charge


@<TRIPOS>ATOM
      1 P           -1.8310    -0.3330     3.3880 p5         1 OMG       1.269900
      2 OP1         -2.3630     0.2400     2.1230 o          1 OMG      -0.914500
      3 OP2         -2.6990    -1.4600     3.8270 o          1 OMG      -0.914500
      4 OP3         -1.8050     0.7090     4.4510 o          1 OMG      -0.914500
      5 O5          -0.3420    -0.8900     3.1510 os         1 OMG      -0.563400
      6 C5           0.6770     0.0180     2.7120 c3         1 OMG       0.241600
      7 C4           1.6220    -0.7130     1.7060 c5         1 OMG       0.113300
      8 O4           0.9040    -1.1350     0.5080 os         1 OMG      -0.409000
      9 C3           2.7800     0.1880     1.1620 c5         1 OMG       0.088300
     10 O3           3.8450    -0.6100     0.6030 oh         1 OMG      -0.721000
     11 C2           1.9550     0.9830     0.0900 c5         1 OMG       0.117300
     12 O2           2.8390     1.5980    -0.8910 os         1 OMG      -0.427000
     13 CM2          3.6810     2.6720    -0.4360 c3         1 OMG       0.154900
     14 C1           1.1450    -0.1810    -0.5590 c5         1 OMG       0.323300
     15 N9          -0.1070     0.1470    -1.2420 na         1 OMG      -0.182500
     16 C8          -1.1080     0.9850    -0.7810 cc         1 OMG       0.476400
     17 N7          -2.0610     1.1520    -1.7020 nd         1 OMG      -0.626000
     18 C7          -1.6650     0.3790    -2.7870 cd         1 OMG       0.105500
     19 C6          -2.3090     0.1510    -4.1180 c          1 OMG       0.516500
     20 O6          -3.3670     0.6380    -4.4960 o          1 OMG      -0.561000
     21 N1          -1.5740    -0.6850    -4.9100 ns         1 OMG      -0.459400
     22 C10         -0.4000    -1.2300    -4.5260 cd         1 OMG       0.672800
     23 N2           0.2030    -2.0240    -5.3970 nv         1 OMG      -1.060200
     24 N3           0.2150    -1.0670    -3.3780 nc         1 OMG      -0.660100
     25 C9          -0.4680    -0.2380    -2.5090 cc         1 OMG       0.084400
     26 H5           1.2720     0.3540     3.5710 h1         1 OMG      -0.004800
     27 H5'          0.2440     0.9080     2.2390 h1         1 OMG      -0.004800
     28 H4           2.0180    -1.6030     2.2130 h1         1 OMG       0.064700
     29 H3           3.1700     0.8560     1.9430 h1         1 OMG       0.048700
     30 HO3          4.3390    -1.0150     1.3540 ho         1 OMG       0.489000
     31 H2           1.3080     1.7490     0.5360 h1         1 OMG       0.079700
     32 HM21         4.2660     3.0750    -1.2720 h1         1 OMG       0.019367
     33 HM22         3.0780     3.4860    -0.0150 h1         1 OMG       0.019367
     34 HM23         4.3830     2.3250     0.3340 h1         1 OMG       0.019367
     35 H1           1.7810    -0.6630    -1.3110 h2         1 OMG       0.083700
     36 H8          -1.0810     1.4380     0.2050 h5         1 OMG       0.182100
     37 HN1         -1.9400    -0.8720    -5.8290 hn         1 OMG       0.294500
     38 HN21         0.9620    -2.5690    -5.0070 hn         1 OMG       0.477500
     39 HN22        -0.3750    -2.4970    -6.0810 hn         1 OMG       0.477500
@<TRIPOS>BOND
     1     1     2 1   
     2     1     3 1   
     3     1     4 1   
     4     1     5 1   
     5     5     6 1   
     6     6     7 1   
     7     6    26 1   
     8     6    27 1   
     9     7     8 1   
    10     7     9 1   
    11     7    28 1   
    12     8    14 1   
    13     9    10 1   
    14     9    11 1   
    15     9    29 1   
    16    10    30 1   
    17    11    12 1   
    18    11    14 1   
    19    11    31 1   
    20    12    13 1   
    21    13    32 1   
    22    13    33 1   
    23    13    34 1   
    24    14    15 1   
    25    14    35 1   
    26    15    16 1   
    27    15    25 1   
    28    16    17 2   
    29    16    36 1   
    30    17    18 1   
    31    18    19 1   
    32    18    25 2   
    33    19    20 2   
    34    19    21 1   
    35    21    22 1   
    36    21    37 1   
    37    22    23 1   
    38    22    24 2   
    39    23    38 1   
    40    23    39 1   
    41    24    25 1   
@<TRIPOS>SUBSTRUCTURE
     1 OMG         1 TEMP              0 ****  ****    0 ROOT
