@<TRIPOS>MOLECULE
OMH
   20    19     1     0     0
SMALL
No Charge or Current Charge


@<TRIPOS>ATOM
      1 O           61.0630   -39.4570    11.1510 o          1 OMH      -0.851800
      2 C           60.4960   -38.3750    11.2690 c          1 OMH       0.925600
      3 CA          59.2220   -38.0820    10.3760 c3         1 OMH       0.005500
      4 N           57.8870   -37.9750    11.1040 n8         1 OMH      -0.901800
      5 CB          59.4970   -36.8220     9.5070 c3         1 OMH       0.228400
      6 OG          60.6380   -37.0280     8.6620 os         1 OMH      -0.573200
      7 P           60.4920   -37.6850     7.1940 p5         1 OMH       1.407800
      8 O3          59.5450   -38.8390     7.1770 o          1 OMH      -0.843000
      9 O2          61.8230   -38.0710     6.6340 o          1 OMH      -0.843000
     10 O1          59.8780   -36.4110     6.4180 os         1 OMH      -0.559200
     11 C31         60.7340   -35.3200     6.0750 c3         1 OMH       0.202700
     12 OXT         60.7620   -37.6020    12.1870 o          1 OMH      -0.851800
     13 HA          59.1170   -38.9390     9.6990 h1         1 OMH       0.033700
     14 H           57.7160   -38.8460    11.6190 hn         1 OMH       0.314300
     15 H2          57.9700   -37.2630    11.8380 hn         1 OMH       0.314300
     16 HB          58.6100   -36.5990     8.8990 h1         1 OMH       0.004200
     17 HBA         59.6690   -35.9570    10.1610 h1         1 OMH       0.004200
     18 H31         61.4110   -35.6000     5.2590 h1         1 OMH      -0.004633
     19 H31A        60.1360   -34.4620     5.7440 h1         1 OMH      -0.004633
     20 H31B        61.3350   -35.0050     6.9380 h1         1 OMH      -0.004633
@<TRIPOS>BOND
     1     1     2 1   
     2     2     3 1   
     3     2    12 1   
     4     3     4 1   
     5     3     5 1   
     6     3    13 1   
     7     4    14 1   
     8     4    15 1   
     9     5     6 1   
    10     5    16 1   
    11     5    17 1   
    12     6     7 1   
    13     7     8 1   
    14     7     9 1   
    15     7    10 1   
    16    10    11 1   
    17    11    18 1   
    18    11    19 1   
    19    11    20 1   
@<TRIPOS>SUBSTRUCTURE
     1 OMH         1 TEMP              0 ****  ****    0 ROOT
