@<TRIPOS>MOLECULE
OMH
   20    19     1     0     0
SMALL
bcc


@<TRIPOS>ATOM
      1 O           61.5020   -36.7340    11.3230 o          1 OMH      -0.851800
      2 C           60.2690   -36.8940    11.2380 c          1 OMH       0.925600
      3 CA          59.7580   -38.1970    10.5770 c3         1 OMH       0.005500
      4 N           58.8100   -38.9460    11.3990 n8         1 OMH      -0.901800
      5 CB          59.0530   -37.8800     9.2660 c3         1 OMH       0.228400
      6 OG          59.8980   -37.0860     8.4570 os         1 OMH      -0.573200
      7 P           59.2320   -36.3240     7.1580 p5         1 OMH       1.407800
      8 O3          58.2570   -35.2900     7.6250 o          1 OMH      -0.843000
      9 O2          58.8380   -37.3450     6.1340 o          1 OMH      -0.843000
     10 O1          60.5770   -35.5170     6.6890 os         1 OMH      -0.559200
     11 C31         61.6430   -36.2160     6.0790 c3         1 OMH       0.202700
     12 OXT         59.3820   -36.1100    11.6400 o          1 OMH      -0.851800
     13 HA          60.6070   -38.8540    10.3660 h1         1 OMH       0.033700
     14 H           59.2940   -39.3190    12.2060 hn         1 OMH       0.314300
     15 H2          58.1380   -38.2850    11.7740 hn         1 OMH       0.314300
     16 HB          58.7900   -38.8150     8.7580 h1         1 OMH       0.004200
     17 HBA         58.1160   -37.3550     9.4890 h1         1 OMH       0.004200
     18 H31         61.3270   -36.7510     5.1810 h1         1 OMH      -0.004633
     19 H31A        62.4010   -35.4860     5.7940 h1         1 OMH      -0.004633
     20 H31B        62.1080   -36.9360     6.7580 h1         1 OMH      -0.004633
@<TRIPOS>BOND
     1     1     2 1   
     2     2     3 1   
     3     2    12 1   
     4     3     4 1   
     5     3     5 1   
     6     3    13 1   
     7     4    14 1   
     8     4    15 1   
     9     5     6 1   
    10     5    16 1   
    11     5    17 1   
    12     6     7 1   
    13     7     8 1   
    14     7     9 1   
    15     7    10 1   
    16    10    11 1   
    17    11    18 1   
    18    11    19 1   
    19    11    20 1   
@<TRIPOS>SUBSTRUCTURE
     1 OMH         1 TEMP              0 ****  ****    0 ROOT
