@<TRIPOS>MOLECULE
OMI
   20    21     1     0     0
SMALL
abcg2


@<TRIPOS>ATOM
      1 CA          -2.0440    -0.1130     0.0040 c5         1 OMI       0.094800
      2 C           -1.2500     1.1830     0.1020 c          1 OMI       0.589700
      3 O           -1.7270     2.2960     0.1920 o          1 OMI      -0.519100
      4 CAI          0.1460     0.7900     0.0570 ca         1 OMI      -0.280600
      5 CAE          1.3050     1.5600     0.0770 ca         1 OMI       0.011000
      6 CAC          2.5280     0.9230    -0.0070 ca         1 OMI      -0.185000
      7 CAD          2.5740    -0.4750    -0.1160 ca         1 OMI      -0.035000
      8 CAF          1.4350    -1.2580    -0.1340 ca         1 OMI      -0.190000
      9 CAJ          0.1960    -0.6120    -0.0300 ca         1 OMI       0.357000
     10 N           -1.0440    -1.1560     0.0160 nh         1 OMI      -0.810400
     11 CAA         -1.3660    -2.5110    -0.3390 c3         1 OMI       0.221100
     12 H1          -2.7480    -0.2100     0.8360 h1         1 OMI       0.075200
     13 H2          -2.6260    -0.1190    -0.9250 h1         1 OMI       0.075200
     14 H3           1.2420     2.6390     0.1500 ha         1 OMI       0.127000
     15 H4           3.4470     1.4930     0.0050 ha         1 OMI       0.118000
     16 H5           3.5380    -0.9620    -0.1930 ha         1 OMI       0.110000
     17 H6           1.5110    -2.3340    -0.2230 ha         1 OMI       0.119000
     18 H7          -1.4560    -2.6510    -1.4210 h1         1 OMI       0.040700
     19 H8          -0.6010    -3.1910     0.0340 h1         1 OMI       0.040700
     20 H9          -2.3100    -2.7930     0.1240 h1         1 OMI       0.040700
@<TRIPOS>BOND
     1     1     2 1   
     2     1    10 1   
     3     1    12 1   
     4     1    13 1   
     5     2     3 2   
     6     2     4 1   
     7     4     5 ar  
     8     4     9 ar  
     9     5     6 ar  
    10     5    14 1   
    11     6     7 ar  
    12     6    15 1   
    13     7     8 ar  
    14     7    16 1   
    15     8     9 ar  
    16     8    17 1   
    17     9    10 1   
    18    10    11 1   
    19    11    18 1   
    20    11    19 1   
    21    11    20 1   
@<TRIPOS>SUBSTRUCTURE
     1 OMI         1 TEMP              0 ****  ****    0 ROOT
