@<TRIPOS>MOLECULE
OMI
   20    21     1     0     0
SMALL
No Charge or Current Charge


@<TRIPOS>ATOM
      1 CA          -2.1380    -0.0910     0.0180 c5         1 OMI       0.094800
      2 C           -1.2820     1.2250     0.1470 c          1 OMI       0.589700
      3 O           -1.6500     2.3860     0.2980 o          1 OMI      -0.519100
      4 CAI          0.1360     0.7710     0.0440 ca         1 OMI      -0.280600
      5 CAE          1.2940     1.5620     0.1000 ca         1 OMI       0.011000
      6 CAC          2.5440     0.9210    -0.0190 ca         1 OMI      -0.185000
      7 CAD          2.6200    -0.4800    -0.1900 ca         1 OMI      -0.035000
      8 CAF          1.4410    -1.2500    -0.2420 ca         1 OMI      -0.190000
      9 CAJ          0.2100    -0.5940    -0.1220 ca         1 OMI       0.357000
     10 N           -1.0690    -1.1370    -0.1440 nh         1 OMI      -0.810400
     11 CAA         -1.3430    -2.5810    -0.3070 c3         1 OMI       0.221100
     12 H1          -2.7320    -0.2220     0.9320 h1         1 OMI       0.075200
     13 H2          -2.7930    -0.0080    -0.8600 h1         1 OMI       0.075200
     14 H3           1.2310     2.6410     0.2320 ha         1 OMI       0.127000
     15 H4           3.4570     1.5100     0.0210 ha         1 OMI       0.118000
     16 H5           3.5900    -0.9640    -0.2810 ha         1 OMI       0.110000
     17 H6           1.4880    -2.3260    -0.3730 ha         1 OMI       0.119000
     18 H7          -0.9440    -2.9420    -1.2640 h1         1 OMI       0.040700
     19 H8          -0.8840    -3.1540     0.5100 h1         1 OMI       0.040700
     20 H9          -2.4250    -2.7710    -0.2930 h1         1 OMI       0.040700
@<TRIPOS>BOND
     1     1     2 1   
     2     1    10 1   
     3     1    12 1   
     4     1    13 1   
     5     2     3 2   
     6     2     4 1   
     7     4     5 ar  
     8     4     9 ar  
     9     5     6 ar  
    10     5    14 1   
    11     6     7 ar  
    12     6    15 1   
    13     7     8 ar  
    14     7    16 1   
    15     8     9 ar  
    16     8    17 1   
    17     9    10 1   
    18    10    11 1   
    19    11    18 1   
    20    11    19 1   
    21    11    20 1   
@<TRIPOS>SUBSTRUCTURE
     1 OMI         1 TEMP              0 ****  ****    0 ROOT
