@<TRIPOS>MOLECULE
OMJ
   47    49     1     0     0
SMALL
abcg2


@<TRIPOS>ATOM
      1 O27         19.1530     5.1260     3.0410 o          1 OMJ      -0.719500
      2 C25         20.8530     4.1400     1.7460 c6         1 OMJ      -0.069300
      3 C12         18.6300    -2.1050     0.6090 ca         1 OMJ      -0.122000
      4 C13         19.0570    -0.8500     0.1980 ca         1 OMJ      -0.082500
      5 C14         20.4020    -0.5000     0.2310 ca         1 OMJ      -0.036300
      6 C21         21.4280     3.6820    -0.5870 c6         1 OMJ       0.075000
      7 C22         22.7300     4.4700    -0.4600 c6         1 OMJ       0.149600
      8 C02         19.0280    -6.6170     4.1470 ca         1 OMJ      -0.007300
      9 C03         18.9780    -6.0650     2.8800 ca         1 OMJ      -0.162000
     10 C04         19.2290    -4.7090     2.6710 ca         1 OMJ       0.177100
     11 C05         19.5310    -3.8730     3.7430 ca         1 OMJ      -0.187000
     12 C06         19.5910    -4.4150     5.0130 ca         1 OMJ      -0.029000
     13 C07         19.3470    -5.7700     5.2230 ca         1 OMJ      -0.078000
     14 C08         19.4200    -6.2980     6.5430 cg         1 OMJ       0.344000
     15 C11         19.5660    -3.0270     1.0450 ca         1 OMJ       0.073100
     16 C15         21.3220    -1.4480     0.6690 ca         1 OMJ      -0.082500
     17 C16         20.9160    -2.7110     1.0720 ca         1 OMJ      -0.122000
     18 C17         20.8420     0.8710    -0.1860 c3         1 OMJ      -0.123100
     19 C24         21.5670     5.4340     1.3360 c6         1 OMJ       0.151600
     20 C26         19.3580     4.4480     2.0150 c          1 OMJ       0.723000
     21 N09         19.4790    -6.7310     7.6100 n1         1 OMJ      -0.487000
     22 N20         21.0640     3.1470     0.7050 n          1 OMJ      -0.367800
     23 O10         19.1340    -4.2870     1.3930 os         1 OMJ      -0.253200
     24 O19         20.4120     1.5000     2.0840 o          1 OMJ      -0.598100
     25 O23         22.8260     5.1540     0.7730 os         1 OMJ      -0.469000
     26 O28         18.5280     4.0450     1.1850 o          1 OMJ      -0.719500
     27 H1          21.3150     3.7800     2.6690 h1         1 OMJ       0.070700
     28 H2          17.5800    -2.3660     0.5840 ha         1 OMJ       0.120500
     29 H3          18.3240    -0.1300    -0.1460 ha         1 OMJ       0.123000
     30 H4          20.6180     4.3130    -0.9640 h1         1 OMJ       0.044700
     31 H5          21.5720     2.8950    -1.3220 h1         1 OMJ       0.044700
     32 H6          23.5820     3.7880    -0.5140 h1         1 OMJ       0.022700
     33 H7          22.8080     5.1660    -1.3050 h1         1 OMJ       0.022700
     34 H8          19.6200    -8.5760     4.8010 hc         1 OMJ       0.047367
     35 H9          17.9190    -8.2190     5.0500 hc         1 OMJ       0.047367
     36 H10         18.5150    -8.5720     3.4290 hc         1 OMJ       0.047367
     37 H11         18.7400    -6.6930     2.0300 ha         1 OMJ       0.127000
     38 H12         19.7160    -2.8170     3.6040 ha         1 OMJ       0.152000
     39 H13         19.8270    -3.7740     5.8520 ha         1 OMJ       0.127000
     40 H14         22.3770    -1.2010     0.6920 ha         1 OMJ       0.123000
     41 H15         21.6450    -3.4410     1.4010 ha         1 OMJ       0.120500
     42 H16         21.8690     0.8400    -0.5600 hc         1 OMJ       0.057200
     43 H17         20.2260     1.2190    -1.0190 hc         1 OMJ       0.057200
     44 H18         21.7320     6.0470     2.2210 h1         1 OMJ       0.052700
     45 H19         20.9500     6.0270     0.6470 h1         1 OMJ       0.052700
     46 C18         20.7480     1.8660     0.9670 c          1 OMJ       0.616100
     47 C01         18.7550    -8.0730     4.3650 c3         1 OMJ      -0.052800
@<TRIPOS>BOND
     1     1    20 1   
     2     2    19 1   
     3     2    20 1   
     4     2    22 1   
     5     2    27 1   
     6     3     4 ar  
     7     3    15 ar  
     8     3    28 1   
     9     4     5 ar  
    10     4    29 1   
    11     5    16 ar  
    12     5    18 1   
    13     6     7 1   
    14     6    22 1   
    15     6    30 1   
    16     6    31 1   
    17     7    25 1   
    18     7    32 1   
    19     7    33 1   
    20     8     9 ar  
    21     8    13 ar  
    22     8    47 1   
    23     9    10 ar  
    24     9    37 1   
    25    10    11 ar  
    26    10    23 1   
    27    11    12 ar  
    28    11    38 1   
    29    12    13 ar  
    30    12    39 1   
    31    13    14 1   
    32    14    21 3   
    33    15    17 ar  
    34    15    23 1   
    35    16    17 ar  
    36    16    40 1   
    37    17    41 1   
    38    18    42 1   
    39    18    43 1   
    40    18    46 1   
    41    19    25 1   
    42    19    44 1   
    43    19    45 1   
    44    20    26 1   
    45    22    46 1   
    46    24    46 2   
    47    34    47 1   
    48    35    47 1   
    49    36    47 1   
@<TRIPOS>SUBSTRUCTURE
     1 OMJ         1 TEMP              0 ****  ****    0 ROOT
