@<TRIPOS>MOLECULE
OMJ
   47    49     1     0     0
SMALL
No Charge or Current Charge


@<TRIPOS>ATOM
      1 O27         21.1560     3.7440     4.2220 o          1 OMJ      -0.719500
      2 C25         21.1180     3.9370     1.8530 c6         1 OMJ      -0.069300
      3 C12         19.7430    -1.7860    -0.0740 ca         1 OMJ      -0.122000
      4 C13         20.5810    -0.6860    -0.3280 ca         1 OMJ      -0.082500
      5 C14         21.7580    -0.5000     0.4240 ca         1 OMJ      -0.036300
      6 C21         21.2270     3.2210    -0.6230 c6         1 OMJ       0.075000
      7 C22         20.2200     4.3650    -0.8940 c6         1 OMJ       0.149600
      8 C02         18.5740    -6.2180     3.8440 ca         1 OMJ      -0.007300
      9 C03         18.8520    -5.6660     2.5780 ca         1 OMJ      -0.162000
     10 C04         18.9800    -4.2790     2.4130 ca         1 OMJ       0.177100
     11 C05         18.8080    -3.4230     3.5140 ca         1 OMJ      -0.187000
     12 C06         18.5300    -3.9590     4.7820 ca         1 OMJ      -0.029000
     13 C07         18.4140    -5.3530     4.9560 ca         1 OMJ      -0.078000
     14 C08         18.1280    -5.8650     6.2700 cg         1 OMJ       0.344000
     15 C11         20.0710    -2.7030     0.9370 ca         1 OMJ       0.073100
     16 C15         22.0900    -1.4300     1.4280 ca         1 OMJ      -0.082500
     17 C16         21.2530    -2.5310     1.6830 ca         1 OMJ      -0.122000
     18 C17         22.6700     0.6920     0.1530 c3         1 OMJ      -0.123100
     19 C24         20.1280     5.0290     1.3790 c6         1 OMJ       0.151600
     20 C26         20.5630     3.4020     3.2070 c          1 OMJ       0.723000
     21 N09         17.8960    -6.2710     7.3410 n1         1 OMJ      -0.487000
     22 N20         21.4850     2.8790     0.8170 n          1 OMJ      -0.367800
     23 O10         19.2400    -3.7790     1.1570 os         1 OMJ      -0.253200
     24 O19         22.9010     1.7800     2.2710 o          1 OMJ      -0.598100
     25 O23         20.4120     5.4400     0.0340 os         1 OMJ      -0.469000
     26 O28         19.8550     2.4040     3.1770 o          1 OMJ      -0.719500
     27 H1          22.0520     4.4560     2.1070 h1         1 OMJ       0.070700
     28 H2          18.8370    -1.9260    -0.6580 ha         1 OMJ       0.120500
     29 H3          20.3130     0.0180    -1.1120 ha         1 OMJ       0.123000
     30 H4          20.8470     2.3340    -1.1450 h1         1 OMJ       0.044700
     31 H5          22.1860     3.4880    -1.0900 h1         1 OMJ       0.044700
     32 H6          20.3490     4.7430    -1.9180 h1         1 OMJ       0.022700
     33 H7          19.1900     3.9890    -0.7990 h1         1 OMJ       0.022700
     34 H8          19.1950    -8.1290     4.6870 hc         1 OMJ       0.047367
     35 H9          17.4560    -8.0180     4.3510 hc         1 OMJ       0.047367
     36 H10         18.6030    -8.2460     3.0270 hc         1 OMJ       0.047367
     37 H11         18.9760    -6.3140     1.7140 ha         1 OMJ       0.127000
     38 H12         18.8850    -2.3460     3.3890 ha         1 OMJ       0.152000
     39 H13         18.4010    -3.2880     5.6300 ha         1 OMJ       0.127000
     40 H14         22.9990    -1.3010     2.0130 ha         1 OMJ       0.123000
     41 H15         21.5270    -3.2460     2.4540 ha         1 OMJ       0.120500
     42 H16         23.7120     0.3750     0.2780 hc         1 OMJ       0.057200
     43 H17         22.5300     1.0150    -0.8810 hc         1 OMJ       0.057200
     44 H18         20.1920     5.9030     2.0430 h1         1 OMJ       0.052700
     45 H19         19.0960     4.6500     1.4260 h1         1 OMJ       0.052700
     46 C18         22.3820     1.8270     1.1610 c          1 OMJ       0.616100
     47 C01         18.4500    -7.7350     3.9850 c3         1 OMJ      -0.052800
@<TRIPOS>BOND
     1     1    20 1   
     2     2    19 1   
     3     2    20 1   
     4     2    22 1   
     5     2    27 1   
     6     3     4 ar  
     7     3    15 ar  
     8     3    28 1   
     9     4     5 ar  
    10     4    29 1   
    11     5    16 ar  
    12     5    18 1   
    13     6     7 1   
    14     6    22 1   
    15     6    30 1   
    16     6    31 1   
    17     7    25 1   
    18     7    32 1   
    19     7    33 1   
    20     8     9 ar  
    21     8    13 ar  
    22     8    47 1   
    23     9    10 ar  
    24     9    37 1   
    25    10    11 ar  
    26    10    23 1   
    27    11    12 ar  
    28    11    38 1   
    29    12    13 ar  
    30    12    39 1   
    31    13    14 1   
    32    14    21 3   
    33    15    17 ar  
    34    15    23 1   
    35    16    17 ar  
    36    16    40 1   
    37    17    41 1   
    38    18    42 1   
    39    18    43 1   
    40    18    46 1   
    41    19    25 1   
    42    19    44 1   
    43    19    45 1   
    44    20    26 1   
    45    22    46 1   
    46    24    46 2   
    47    34    47 1   
    48    35    47 1   
    49    36    47 1   
@<TRIPOS>SUBSTRUCTURE
     1 OMJ         1 TEMP              0 ****  ****    0 ROOT
