@<TRIPOS>MOLECULE
OMK
   61    65     1     0     0
SMALL
abcg2


@<TRIPOS>ATOM
      1 N1          -1.1310     0.4230     0.1970 na         1 OMK      -0.166600
      2 C2          -0.5200     1.6060     0.5360 cc         1 OMK       0.460400
      3 N3          -1.1540     2.6560     0.0990 nd         1 OMK      -0.548100
      4 C4          -2.2440     0.7660    -0.5410 ca         1 OMK      -0.053200
      5 C5          -2.2420     2.1680    -0.5710 ca         1 OMK       0.069400
      6 C6           0.0870    -1.3610    -0.8820 c          1 OMK       0.592100
      7 C7          -0.5750    -0.9030     0.4190 c3         1 OMK       0.011300
      8 C8          -3.2350     0.0250    -1.1830 ca         1 OMK      -0.112000
      9 C10         -3.2540     2.8760    -1.2210 ca         1 OMK      -0.071000
     10 C11         -4.2210     0.7430    -1.8150 ca         1 OMK       0.146000
     11 C12          0.7440     1.6880     1.2820 ca         1 OMK      -0.118900
     12 C13         -4.2360     2.1420    -1.8330 ca         1 OMK       0.115000
     13 C14          2.3700    -1.8360    -1.7660 ca         1 OMK      -0.026000
     14 O15         -0.5650    -1.5320    -1.8930 o          1 OMK      -0.560100
     15 C16          3.7170    -1.5760    -1.4640 ca         1 OMK      -0.124300
     16 C17         -1.5790    -1.9230     0.9650 c6         1 OMK      -0.065700
     17 C18          1.8200     2.3580     0.7050 ca         1 OMK      -0.076000
     18 C19          0.8830     1.1510     2.5590 ca         1 OMK      -0.076000
     19 F20         -5.2070     0.0970    -2.4490 f          1 OMK      -0.161000
     20 F21         -5.2400     2.7520    -2.4750 f          1 OMK      -0.162000
     21 C22          3.1470     1.9130     2.6430 ca         1 OMK       0.128000
     22 C23          2.0830     1.2560     3.2430 ca         1 OMK      -0.110500
     23 C24          3.0250     2.4720     1.3800 ca         1 OMK      -0.110500
     24 CL25         4.6520     2.0380     3.4850 cl         1 OMK      -0.190000
     25 C26          2.0210    -2.4020    -2.9900 ca         1 OMK      -0.125000
     26 C27          4.1220    -0.9710    -0.1490 c3         1 OMK      -0.051800
     27 C28          4.6800    -1.8950    -2.4130 ca         1 OMK      -0.085000
     28 C29         -0.8720    -3.2540     1.2340 c6         1 OMK      -0.074400
     29 C30         -2.2520    -1.4070     2.2380 c6         1 OMK      -0.074400
     30 C31          3.0080    -2.7060    -3.9180 ca         1 OMK      -0.087000
     31 C32          4.3400    -2.4540    -3.6370 ca         1 OMK      -0.127000
     32 C33         -3.2160    -2.4410     2.8110 c6         1 OMK      -0.073400
     33 C34         -1.8380    -4.2850     1.8090 c6         1 OMK      -0.073400
     34 C35         -2.5140    -3.7680     3.0740 c6         1 OMK      -0.077400
     35 H7           0.1890    -0.7870     1.1880 h1         1 OMK       0.071700
     36 H8          -3.2510    -1.0520    -1.2290 ha         1 OMK       0.150000
     37 HN9          1.8170    -1.3300     0.1330 hn         1 OMK       0.153000
     38 H10         -3.2650     3.9580    -1.2460 ha         1 OMK       0.151000
     39 H17         -2.3530    -2.1110     0.2150 hc         1 OMK       0.075700
     40 H18          1.7220     2.7870    -0.2830 ha         1 OMK       0.132500
     41 H19          0.0480     0.6580     3.0420 ha         1 OMK       0.132500
     42 H23          2.1820     0.8370     4.2350 ha         1 OMK       0.136500
     43 H24          3.8580     2.9850     0.9200 ha         1 OMK       0.136500
     44 H26          0.9910    -2.6110    -3.2290 ha         1 OMK       0.144000
     45 H27          3.8640    -1.6130     0.6980 hc         1 OMK       0.042367
     46 H27A         5.1990    -0.8200    -0.1120 hc         1 OMK       0.042367
     47 H27B         3.6560     0.0030     0.0210 hc         1 OMK       0.042367
     48 H28          5.7210    -1.6980    -2.1830 ha         1 OMK       0.112000
     49 H29         -0.4230    -3.6480     0.3180 hc         1 OMK       0.044200
     50 H29A        -0.0520    -3.0900     1.9430 hc         1 OMK       0.044200
     51 H30         -1.4820    -1.1860     2.9870 hc         1 OMK       0.044200
     52 H30A        -2.7830    -0.4730     2.0430 hc         1 OMK       0.044200
     53 H31          2.7220    -3.1460    -4.8640 ha         1 OMK       0.118000
     54 H32          5.1110    -2.6910    -4.3590 ha         1 OMK       0.117000
     55 H33         -3.6620    -2.0550     3.7300 hc         1 OMK       0.045950
     56 H33A        -4.0400    -2.5950     2.1060 hc         1 OMK       0.045950
     57 H34         -2.6010    -4.5210     1.0600 hc         1 OMK       0.045950
     58 H34A        -1.3030    -5.2150     2.0130 hc         1 OMK       0.045950
     59 H35         -1.7600    -3.6280     3.8550 hc         1 OMK       0.042200
     60 H35A        -3.2260    -4.5050     3.4540 hc         1 OMK       0.042200
     61 N9           1.4270    -1.5100    -0.7780 ns         1 OMK      -0.143000
@<TRIPOS>BOND
     1     1     2 1   
     2     1     4 1   
     3     1     7 1   
     4     2     3 2   
     5     2    11 1   
     6     3     5 1   
     7     4     5 ar  
     8     4     8 ar  
     9     5     9 ar  
    10     6     7 1   
    11     6    14 2   
    12     6    61 1   
    13     7    16 1   
    14     7    35 1   
    15     8    10 ar  
    16     8    36 1   
    17     9    12 ar  
    18     9    38 1   
    19    10    12 ar  
    20    10    19 1   
    21    11    17 ar  
    22    11    18 ar  
    23    12    20 1   
    24    13    15 ar  
    25    13    25 ar  
    26    13    61 1   
    27    15    26 1   
    28    15    27 ar  
    29    16    28 1   
    30    16    29 1   
    31    16    39 1   
    32    17    23 ar  
    33    17    40 1   
    34    18    22 ar  
    35    18    41 1   
    36    21    22 ar  
    37    21    23 ar  
    38    21    24 1   
    39    22    42 1   
    40    23    43 1   
    41    25    30 ar  
    42    25    44 1   
    43    26    45 1   
    44    26    46 1   
    45    26    47 1   
    46    27    31 ar  
    47    27    48 1   
    48    28    33 1   
    49    28    49 1   
    50    28    50 1   
    51    29    32 1   
    52    29    51 1   
    53    29    52 1   
    54    30    31 ar  
    55    30    53 1   
    56    31    54 1   
    57    32    34 1   
    58    32    55 1   
    59    32    56 1   
    60    33    34 1   
    61    33    57 1   
    62    33    58 1   
    63    34    59 1   
    64    34    60 1   
    65    37    61 1   
@<TRIPOS>SUBSTRUCTURE
     1 OMK         1 TEMP              0 ****  ****    0 ROOT
