@<TRIPOS>MOLECULE
OMK
   61    65     1     0     0
SMALL
No Charge or Current Charge


@<TRIPOS>ATOM
      1 N1          -1.0860     0.3620     0.2480 na         1 OMK      -0.166600
      2 C2          -0.4000     1.5280     0.6430 cc         1 OMK       0.460400
      3 N3          -0.9700     2.6300     0.1180 nd         1 OMK      -0.548100
      4 C4          -2.1190     0.7740    -0.5580 ca         1 OMK      -0.053200
      5 C5          -2.0420     2.1410    -0.6130 ca         1 OMK       0.069400
      6 C6          -0.0180    -1.5770    -0.9200 c          1 OMK       0.592100
      7 C7          -0.6530    -1.0590     0.3930 c3         1 OMK       0.011300
      8 C8          -3.1040     0.0570    -1.2620 ca         1 OMK      -0.112000
      9 C10         -2.9600     2.8910    -1.3620 ca         1 OMK      -0.071000
     10 C11         -4.0370     0.7920    -2.0190 ca         1 OMK       0.146000
     11 C12          0.8520     1.5610     1.4120 ca         1 OMK      -0.118900
     12 C13         -3.9690     2.2050    -2.0650 ca         1 OMK       0.115000
     13 C14          2.3420    -1.7500    -1.9380 ca         1 OMK      -0.026000
     14 O15         -0.6800    -2.0960    -1.8120 o          1 OMK      -0.560100
     15 C16          3.6470    -1.2200    -1.7900 ca         1 OMK      -0.124300
     16 C17         -1.6760    -2.0510     1.0590 c6         1 OMK      -0.065700
     17 C18          1.8850     2.4420     1.0230 ca         1 OMK      -0.076000
     18 C19          1.0160     0.8040     2.5940 ca         1 OMK      -0.076000
     19 F20         -4.9990     0.1340    -2.7060 f          1 OMK      -0.161000
     20 F21         -4.8660     2.9070    -2.7960 f          1 OMK      -0.162000
     21 C22          3.2520     1.7140     2.8990 ca         1 OMK       0.128000
     22 C23          2.2160     0.8700     3.3240 ca         1 OMK      -0.110500
     23 C24          3.0840     2.5080     1.7550 ca         1 OMK      -0.110500
     24 Cl25         4.7520     1.7940     3.8120 cl         1 OMK      -0.190000
     25 C26          2.0690    -2.6170    -3.0200 ca         1 OMK      -0.125000
     26 C27          3.9890    -0.2780    -0.6360 c3         1 OMK      -0.051800
     27 C28          4.6480    -1.5520    -2.7250 ca         1 OMK      -0.085000
     28 C29         -0.9790    -3.3770     1.4880 c6         1 OMK      -0.074400
     29 C30         -2.4240    -1.4280     2.2770 c6         1 OMK      -0.074400
     30 C31          3.0740    -2.9420    -3.9450 ca         1 OMK      -0.087000
     31 C32          4.3630    -2.4090    -3.7990 ca         1 OMK      -0.127000
     32 C33         -3.4290    -2.4270     2.9010 c6         1 OMK      -0.073400
     33 C34         -1.9830    -4.3750     2.1160 c6         1 OMK      -0.073400
     34 C35         -2.7270    -3.7420     3.3150 c6         1 OMK      -0.077400
     35 H7           0.1830    -1.0460     1.0980 h1         1 OMK       0.071700
     36 H8          -3.1590    -1.0250    -1.2510 ha         1 OMK       0.150000
     37 HN9          1.7440    -0.9270    -0.1630 hn         1 OMK       0.153000
     38 H10         -2.8920     3.9750    -1.4020 ha         1 OMK       0.151000
     39 H17         -2.4260    -2.3090     0.3020 hc         1 OMK       0.075700
     40 H18          1.7680     3.0640     0.1370 ha         1 OMK       0.132500
     41 H19          0.2120     0.1710     2.9590 ha         1 OMK       0.132500
     42 H23          2.3380     0.2740     4.2250 ha         1 OMK       0.136500
     43 H24          3.8820     3.1740     1.4350 ha         1 OMK       0.136500
     44 H26          1.0870    -3.0590    -3.1570 ha         1 OMK       0.144000
     45 H27          3.7800    -0.7430     0.3350 hc         1 OMK       0.042367
     46 H27A         5.0490     0.0040    -0.6390 hc         1 OMK       0.042367
     47 H27B         3.4050     0.6470    -0.7010 hc         1 OMK       0.042367
     48 H28          5.6510    -1.1450    -2.6210 ha         1 OMK       0.112000
     49 H29         -0.4960    -3.8530     0.6240 hc         1 OMK       0.044200
     50 H29A        -0.1780    -3.1620     2.2110 hc         1 OMK       0.044200
     51 H30         -1.7030    -1.1160     3.0440 hc         1 OMK       0.044200
     52 H30A        -2.9690    -0.5230     1.9730 hc         1 OMK       0.044200
     53 H31          2.8540    -3.6110    -4.7750 ha         1 OMK       0.118000
     54 H32          5.1410    -2.6600    -4.5160 ha         1 OMK       0.117000
     55 H33         -3.9130    -1.9720     3.7760 hc         1 OMK       0.045950
     56 H33A        -4.2300    -2.6450     2.1810 hc         1 OMK       0.045950
     57 H34         -2.7090    -4.6960     1.3560 hc         1 OMK       0.045950
     58 H34A        -1.4530    -5.2800     2.4430 hc         1 OMK       0.045950
     59 H35         -2.0170    -3.5420     4.1290 hc         1 OMK       0.042200
     60 H35A        -3.4670    -4.4510     3.7120 hc         1 OMK       0.042200
     61 N9           1.3590    -1.3990    -0.9710 ns         1 OMK      -0.143000
@<TRIPOS>BOND
     1     1     2 1   
     2     1     4 1   
     3     1     7 1   
     4     2     3 2   
     5     2    11 1   
     6     3     5 1   
     7     4     5 ar  
     8     4     8 ar  
     9     5     9 ar  
    10     6     7 1   
    11     6    14 2   
    12     6    61 1   
    13     7    16 1   
    14     7    35 1   
    15     8    10 ar  
    16     8    36 1   
    17     9    12 ar  
    18     9    38 1   
    19    10    12 ar  
    20    10    19 1   
    21    11    17 ar  
    22    11    18 ar  
    23    12    20 1   
    24    13    15 ar  
    25    13    25 ar  
    26    13    61 1   
    27    15    26 1   
    28    15    27 ar  
    29    16    28 1   
    30    16    29 1   
    31    16    39 1   
    32    17    23 ar  
    33    17    40 1   
    34    18    22 ar  
    35    18    41 1   
    36    21    22 ar  
    37    21    23 ar  
    38    21    24 1   
    39    22    42 1   
    40    23    43 1   
    41    25    30 ar  
    42    25    44 1   
    43    26    45 1   
    44    26    46 1   
    45    26    47 1   
    46    27    31 ar  
    47    27    48 1   
    48    28    33 1   
    49    28    49 1   
    50    28    50 1   
    51    29    32 1   
    52    29    51 1   
    53    29    52 1   
    54    30    31 ar  
    55    30    53 1   
    56    31    54 1   
    57    32    34 1   
    58    32    55 1   
    59    32    56 1   
    60    33    34 1   
    61    33    57 1   
    62    33    58 1   
    63    34    59 1   
    64    34    60 1   
    65    37    61 1   
@<TRIPOS>SUBSTRUCTURE
     1 OMK         1 TEMP              0 ****  ****    0 ROOT
