@<TRIPOS>MOLECULE
OML
   24    24     1     0     0
SMALL
abcg2


@<TRIPOS>ATOM
      1 O6          21.5400    76.8440     6.8390 oh         1 OML      -0.661000
      2 C6          21.6610    75.4630     7.1150 c3         1 OML       0.211800
      3 C5          20.4310    75.0230     7.8540 c2         1 OML      -0.134400
      4 C5A         20.4740    74.5020     9.0720 c2         1 OML       0.127300
      5 F5A         21.6500    74.3190     9.7060 f          1 OML      -0.166500
      6 C1          19.3130    74.0590     9.8970 c6         1 OML       0.169500
      7 C2          18.0260    74.6710     9.3420 c6         1 OML       0.099300
      8 O2          16.8990    74.0420     9.9080 oh         1 OML      -0.728000
      9 C3          17.9700    74.4830     7.8350 c6         1 OML       0.135300
     10 O3          16.7690    74.9630     7.2860 oh         1 OML      -0.726000
     11 C4          19.1040    75.2580     7.1750 c6         1 OML       0.229500
     12 O4          19.2380    74.9000     5.8190 oh         1 OML      -0.711000
     13 H1          22.1720    77.0650     6.1490 ho         1 OML       0.446000
     14 H2          21.7460    74.8770     6.1940 h1         1 OML       0.043700
     15 H3          22.5590    75.2530     7.7040 h1         1 OML       0.043700
     16 H4          19.4590    74.4330    10.9220 h1         1 OML       0.050700
     17 H6          18.0340    75.7470     9.5650 h1         1 OML       0.056700
     18 H7          16.6870    74.4680    10.7450 ho         1 OML       0.514000
     19 H8          18.1100    73.4150     7.6080 h1         1 OML       0.071700
     20 H9          16.0400    74.4790     7.6890 ho         1 OML       0.525000
     21 H10         18.8680    76.3300     7.2650 h1         1 OML       0.062700
     22 H11         18.4590    75.2160     5.3500 ho         1 OML       0.520000
     23 O1          19.2850    72.6500     9.8810 oh         1 OML      -0.697000
     24 H5          18.4940    72.3730    10.3570 ho         1 OML       0.518000
@<TRIPOS>BOND
     1     1     2 1   
     2     1    13 1   
     3     2     3 1   
     4     2    14 1   
     5     2    15 1   
     6     3     4 2   
     7     3    11 1   
     8     4     5 1   
     9     4     6 1   
    10     6     7 1   
    11     6    16 1   
    12     6    23 1   
    13     7     8 1   
    14     7     9 1   
    15     7    17 1   
    16     8    18 1   
    17     9    10 1   
    18     9    11 1   
    19     9    19 1   
    20    10    20 1   
    21    11    12 1   
    22    11    21 1   
    23    12    22 1   
    24    23    24 1   
@<TRIPOS>SUBSTRUCTURE
     1 OML         1 TEMP              0 ****  ****    0 ROOT
