@<TRIPOS>MOLECULE
OML
   24    24     1     0     0
SMALL
No Charge or Current Charge


@<TRIPOS>ATOM
      1 O6          21.8720    76.9080     7.2930 oh         1 OML      -0.661000
      2 C6          21.6680    75.5190     7.0050 c3         1 OML       0.211800
      3 C5          20.4550    75.0150     7.7730 c2         1 OML      -0.134400
      4 C5A         20.5490    74.5430     9.0350 c2         1 OML       0.127300
      5 F5A         21.7220    74.4330     9.6770 f          1 OML      -0.166500
      6 C1          19.3460    74.1320     9.8970 c6         1 OML       0.169500
      7 C2          18.0040    74.6650     9.3180 c6         1 OML       0.099300
      8 O2          16.8830    74.0160     9.9680 oh         1 OML      -0.728000
      9 C3          17.9610    74.4020     7.7910 c6         1 OML       0.135300
     10 O3          16.6670    74.7540     7.2660 oh         1 OML      -0.726000
     11 C4          19.0970    75.1960     7.0790 c6         1 OML       0.229500
     12 O4          19.1380    74.7960     5.7010 oh         1 OML      -0.711000
     13 H1          22.6640    77.1890     6.7830 ho         1 OML       0.446000
     14 H2          21.5420    75.3690     5.9250 h1         1 OML       0.043700
     15 H3          22.5530    74.9380     7.2980 h1         1 OML       0.043700
     16 H4          19.4770    74.5640    10.9000 h1         1 OML       0.050700
     17 H6          17.9620    75.7540     9.4810 h1         1 OML       0.056700
     18 H7          16.6730    74.5330    10.7850 ho         1 OML       0.514000
     19 H8          18.1450    73.3290     7.6270 h1         1 OML       0.071700
     20 H9          16.0410    74.4960     7.9880 ho         1 OML       0.525000
     21 H10         18.8430    76.2660     7.1410 h1         1 OML       0.062700
     22 H11         18.1910    74.7660     5.4270 ho         1 OML       0.520000
     23 O1          19.2530    72.7020     9.9960 oh         1 OML      -0.697000
     24 H5          18.2830    72.5490    10.1240 ho         1 OML       0.518000
@<TRIPOS>BOND
     1     1     2 1   
     2     1    13 1   
     3     2     3 1   
     4     2    14 1   
     5     2    15 1   
     6     3     4 2   
     7     3    11 1   
     8     4     5 1   
     9     4     6 1   
    10     6     7 1   
    11     6    16 1   
    12     6    23 1   
    13     7     8 1   
    14     7     9 1   
    15     7    17 1   
    16     8    18 1   
    17     9    10 1   
    18     9    11 1   
    19     9    19 1   
    20    10    20 1   
    21    11    12 1   
    22    11    21 1   
    23    12    22 1   
    24    23    24 1   
@<TRIPOS>SUBSTRUCTURE
     1 OML         1 TEMP              0 ****  ****    0 ROOT
