@<TRIPOS>MOLECULE
OMM
   60    64     1     0     0
SMALL
bcc


@<TRIPOS>ATOM
      1 N1          -1.8020     0.4170     0.0070 na         1 OMM      -0.131300
      2 C2          -1.6050     1.7750    -0.0600 cc         1 OMM       0.467400
      3 N3          -2.3410     2.3580    -0.9610 nd         1 OMM      -0.560100
      4 C4          -2.7420     0.1190    -0.9570 ca         1 OMM      -0.052200
      5 C5          -3.0710     1.3530    -1.5370 ca         1 OMM       0.069400
      6 C6           0.0520    -1.1120    -0.1780 c          1 OMM       0.652100
      7 C7          -0.9820    -0.5100     0.7760 c3         1 OMM      -0.025000
      8 C8          -3.3360    -1.0680    -1.3790 ca         1 OMM      -0.120000
      9 C10         -4.0260     1.4390    -2.5510 ca         1 OMM      -0.093000
     10 C11         -4.2750    -0.9590    -2.3760 ca         1 OMM       0.103900
     11 C12          2.4330    -1.0830    -0.7170 ca         1 OMM      -0.041400
     12 C14         -0.6520     2.4990     0.7930 ca         1 OMM      -0.117900
     13 C15         -4.6170     0.2690    -2.9520 ca         1 OMM       0.073900
     14 C16          4.7320    -1.8540    -2.1310 ca         1 OMM      -0.111600
     15 C17          3.5760    -1.5240    -0.0640 ca         1 OMM       0.075900
     16 C18          4.7160    -1.8970    -0.7410 ca         1 OMM      -0.129000
     17 O20          6.9590    -2.6270    -2.2050 o          1 OMM      -0.815800
     18 C21          2.4560    -1.0360    -2.1070 ca         1 OMM      -0.124000
     19 C22          3.5910    -1.4230    -2.8010 ca         1 OMM      -0.108000
     20 C23         -1.7710    -1.5790     1.5330 c6         1 OMM      -0.064700
     21 C24          0.3620     3.2460     0.1970 ca         1 OMM      -0.090500
     22 C25         -0.7670     2.4920     2.1810 ca         1 OMM      -0.090500
     23 F26         -4.8880    -2.0590    -2.8300 f          1 OMM      -0.130900
     24 F27         -5.5420     0.2730    -3.9210 f          1 OMM      -0.134900
     25 F28          3.5580    -1.5750     1.2790 f          1 OMM      -0.174900
     26 O29          5.9220    -2.2100    -4.1360 o          1 OMM      -0.815800
     27 C30          1.1290     3.9360     2.3540 ca         1 OMM       0.039400
     28 C31          0.1210     3.2070     2.9670 ca         1 OMM      -0.126500
     29 C32          1.2570     3.9640     0.9740 ca         1 OMM      -0.126500
     30 CL33         2.2420     4.8300     3.3290 cl         1 OMM      -0.107400
     31 C34         -0.8190    -2.4040     2.4040 c6         1 OMM      -0.074900
     32 C35         -2.8700    -0.9540     2.3930 c6         1 OMM      -0.074900
     33 C36         -3.6270    -2.0180     3.1780 c6         1 OMM      -0.072900
     34 C37         -1.5750    -3.4630     3.1990 c6         1 OMM      -0.072900
     35 C38         -2.6860    -2.8480     4.0420 c6         1 OMM      -0.076400
     36 H7          -0.4720     0.0920     1.5310 h1         1 OMM       0.072700
     37 H8          -3.0880    -2.0400    -0.9830 ha         1 OMM       0.171000
     38 HN9          1.4890    -0.1040     0.8440 hn         1 OMM       0.316500
     39 H10         -4.2890     2.3850    -3.0050 ha         1 OMM       0.163000
     40 H18          5.5860    -2.2310    -0.1920 ha         1 OMM       0.167000
     41 H21          1.5880    -0.6790    -2.6440 ha         1 OMM       0.129000
     42 H22          3.5930    -1.3800    -3.8810 ha         1 OMM       0.157000
     43 H23         -2.2370    -2.2660     0.8210 hc         1 OMM       0.073700
     44 H24          0.4600     3.2630    -0.8800 ha         1 OMM       0.150000
     45 H25         -1.5670     1.9410     2.6590 ha         1 OMM       0.150000
     46 H31          0.0190     3.2010     4.0440 ha         1 OMM       0.151500
     47 H32          2.0460     4.5350     0.5050 ha         1 OMM       0.151500
     48 H34         -0.0560    -2.8890     1.7900 hc         1 OMM       0.046700
     49 H34A        -0.2910    -1.7340     3.0930 hc         1 OMM       0.046700
     50 H35         -2.4180    -0.2420     3.0940 hc         1 OMM       0.046700
     51 H35A        -3.5680    -0.3840     1.7750 hc         1 OMM       0.046700
     52 H36         -4.3940    -1.5430     3.7950 hc         1 OMM       0.041950
     53 H36A        -4.1530    -2.6750     2.4770 hc         1 OMM       0.041950
     54 H37         -2.0110    -4.1890     2.5040 hc         1 OMM       0.041950
     55 H37A        -0.8770    -4.0180     3.8290 hc         1 OMM       0.041950
     56 H38         -2.2460    -2.2120     4.8180 hc         1 OMM       0.036700
     57 H38A        -3.2420    -3.6320     4.5620 hc         1 OMM       0.036700
     58 N9           1.3160    -0.6820     0.0370 ns         1 OMM      -0.457100
     59 C13          5.9870    -2.2680    -2.8940 c          1 OMM       0.924200
     60 O19         -0.2700    -1.8800    -1.0620 o          1 OMM      -0.568100
@<TRIPOS>BOND
     1     1     2 1   
     2     1     4 1   
     3     1     7 1   
     4     2     3 2   
     5     2    12 1   
     6     3     5 1   
     7     4     5 ar  
     8     4     8 ar  
     9     5     9 ar  
    10     6     7 1   
    11     6    58 1   
    12     6    60 2   
    13     7    20 1   
    14     7    36 1   
    15     8    10 ar  
    16     8    37 1   
    17     9    13 ar  
    18     9    39 1   
    19    10    13 ar  
    20    10    23 1   
    21    11    15 ar  
    22    11    18 ar  
    23    11    58 1   
    24    12    21 ar  
    25    12    22 ar  
    26    13    24 1   
    27    14    16 ar  
    28    14    19 ar  
    29    14    59 1   
    30    15    16 ar  
    31    15    25 1   
    32    16    40 1   
    33    17    59 1   
    34    18    19 ar  
    35    18    41 1   
    36    19    42 1   
    37    20    31 1   
    38    20    32 1   
    39    20    43 1   
    40    21    29 ar  
    41    21    44 1   
    42    22    28 ar  
    43    22    45 1   
    44    26    59 1   
    45    27    28 ar  
    46    27    29 ar  
    47    27    30 1   
    48    28    46 1   
    49    29    47 1   
    50    31    34 1   
    51    31    48 1   
    52    31    49 1   
    53    32    33 1   
    54    32    50 1   
    55    32    51 1   
    56    33    35 1   
    57    33    52 1   
    58    33    53 1   
    59    34    35 1   
    60    34    54 1   
    61    34    55 1   
    62    35    56 1   
    63    35    57 1   
    64    38    58 1   
@<TRIPOS>SUBSTRUCTURE
     1 OMM         1 TEMP              0 ****  ****    0 ROOT
