@<TRIPOS>MOLECULE
OMM
   60    64     1     0     0
SMALL
No Charge or Current Charge


@<TRIPOS>ATOM
      1 N1          -1.7910     0.4140     0.0540 na         1 OMM      -0.160600
      2 C2          -1.4780     1.7870     0.0890 cc         1 OMM       0.467400
      3 N3          -2.1520     2.4660    -0.8600 nd         1 OMM      -0.560100
      4 C4          -2.6970     0.2490    -0.9650 ca         1 OMM      -0.052200
      5 C5          -2.9130     1.4950    -1.4940 ca         1 OMM       0.069400
      6 C6          -0.0950    -1.3950    -0.2520 c          1 OMM       0.585100
      7 C7          -1.0760    -0.7090     0.7280 c3         1 OMM       0.004300
      8 C8          -3.3340    -0.8960    -1.4790 ca         1 OMM      -0.102000
      9 C10         -3.7960     1.6870    -2.5660 ca         1 OMM      -0.075000
     10 C11         -4.2270    -0.7240    -2.5540 ca         1 OMM       0.139000
     11 C12          2.3830    -1.1500    -0.9340 ca         1 OMM      -0.134000
     12 C14         -0.4610     2.4050     0.9500 ca         1 OMM      -0.117900
     13 C15         -4.4600     0.5630    -3.0940 ca         1 OMM       0.109000
     14 C16          4.8480    -1.6450    -2.2800 ca         1 OMM      -0.111600
     15 C17          3.4960    -0.3090    -0.7380 ca         1 OMM       0.111000
     16 C18          4.7100    -0.5480    -1.3980 ca         1 OMM      -0.111000
     17 O20          7.1010    -1.1520    -2.7980 o          1 OMM      -0.710500
     18 C21          2.5130    -2.2480    -1.8100 ca         1 OMM      -0.106000
     19 C22          3.7300    -2.4900    -2.4740 ca         1 OMM      -0.090000
     20 C23         -1.9520    -1.7040     1.5770 c6         1 OMM      -0.064700
     21 C24          0.4250     3.3620     0.4080 ca         1 OMM      -0.072500
     22 C25         -0.4070     2.1380     2.3360 ca         1 OMM      -0.072500
     23 F26         -4.8570    -1.8040    -3.0720 f          1 OMM      -0.166000
     24 F27         -5.3170     0.7230    -4.1300 f          1 OMM      -0.170000
     25 F28          3.4000     0.7510     0.0980 f          1 OMM      -0.210000
     26 O29          6.2350    -2.8710    -3.7520 o          1 OMM      -0.710500
     27 C30          1.4570     3.6820     2.5880 ca         1 OMM       0.131000
     28 C31          0.5550     2.7650     3.1480 ca         1 OMM      -0.108500
     29 C32          1.3880     3.9870     1.2200 ca         1 OMM      -0.108500
     30 Cl33         2.6590     4.4660     3.6040 cl         1 OMM      -0.199000
     31 C34         -1.0640    -2.5720     2.5190 c6         1 OMM      -0.074900
     32 C35         -3.0610    -0.9870     2.4060 c6         1 OMM      -0.074900
     33 C36         -3.9080    -1.9990     3.2170 c6         1 OMM      -0.072900
     34 C37         -1.9110    -3.5810     3.3330 c6         1 OMM      -0.072900
     35 C38         -3.0170    -2.8610     4.1420 c6         1 OMM      -0.076400
     36 H7          -0.4230    -0.2440     1.4710 h1         1 OMM       0.072700
     37 H8          -3.1530    -1.8890    -1.0880 ha         1 OMM       0.153000
     38 HN9          1.2840    -0.0650     0.4110 hn         1 OMM       0.150000
     39 H10         -3.9600     2.6770    -2.9810 ha         1 OMM       0.145000
     40 H18          5.5460     0.1250    -1.2220 ha         1 OMM       0.149000
     41 H21          1.6890    -2.9310    -1.9900 ha         1 OMM       0.111000
     42 H22          3.8010    -3.3450    -3.1430 ha         1 OMM       0.139000
     43 H23         -2.4470    -2.3870     0.8770 hc         1 OMM       0.073700
     44 H24          0.3800     3.6100    -0.6510 ha         1 OMM       0.132000
     45 H25         -1.1170     1.4550     2.7940 ha         1 OMM       0.132000
     46 H31          0.5970     2.5460     4.2120 ha         1 OMM       0.133500
     47 H32          2.0770     4.7090     0.7900 ha         1 OMM       0.133500
     48 H34         -0.3140    -3.1240     1.9360 hc         1 OMM       0.046700
     49 H34A        -0.5050    -1.9240     3.2090 hc         1 OMM       0.046700
     50 H35         -2.6090    -0.2630     3.0950 hc         1 OMM       0.046700
     51 H35A        -3.7280    -0.4170     1.7450 hc         1 OMM       0.046700
     52 H36         -4.6560    -1.4620     3.8160 hc         1 OMM       0.041950
     53 H36A        -4.4680    -2.6490     2.5290 hc         1 OMM       0.041950
     54 H37         -2.3670    -4.3150     2.6540 hc         1 OMM       0.041950
     55 H37A        -1.2620    -4.1480     4.0140 hc         1 OMM       0.041950
     56 H38         -2.5590    -2.2260     4.9120 hc         1 OMM       0.036700
     57 H38A        -3.6330    -3.6000     4.6710 hc         1 OMM       0.036700
     58 N9           1.1830    -0.8450    -0.2280 ns         1 OMM      -0.131000
     59 C13          6.1620    -1.9100    -2.9990 c          1 OMM       0.713600
     60 O19         -0.4270    -2.3370    -0.9640 o          1 OMM      -0.568100
@<TRIPOS>BOND
     1     1     2 1   
     2     1     4 1   
     3     1     7 1   
     4     2     3 2   
     5     2    12 1   
     6     3     5 1   
     7     4     5 ar  
     8     4     8 ar  
     9     5     9 ar  
    10     6     7 1   
    11     6    58 1   
    12     6    60 2   
    13     7    20 1   
    14     7    36 1   
    15     8    10 ar  
    16     8    37 1   
    17     9    13 ar  
    18     9    39 1   
    19    10    13 ar  
    20    10    23 1   
    21    11    15 ar  
    22    11    18 ar  
    23    11    58 1   
    24    12    21 ar  
    25    12    22 ar  
    26    13    24 1   
    27    14    16 ar  
    28    14    19 ar  
    29    14    59 1   
    30    15    16 ar  
    31    15    25 1   
    32    16    40 1   
    33    17    59 1   
    34    18    19 ar  
    35    18    41 1   
    36    19    42 1   
    37    20    31 1   
    38    20    32 1   
    39    20    43 1   
    40    21    29 ar  
    41    21    44 1   
    42    22    28 ar  
    43    22    45 1   
    44    26    59 1   
    45    27    28 ar  
    46    27    29 ar  
    47    27    30 1   
    48    28    46 1   
    49    29    47 1   
    50    31    34 1   
    51    31    48 1   
    52    31    49 1   
    53    32    33 1   
    54    32    50 1   
    55    32    51 1   
    56    33    35 1   
    57    33    52 1   
    58    33    53 1   
    59    34    35 1   
    60    34    54 1   
    61    34    55 1   
    62    35    56 1   
    63    35    57 1   
    64    38    58 1   
@<TRIPOS>SUBSTRUCTURE
     1 OMM         1 TEMP              0 ****  ****    0 ROOT
