@<TRIPOS>MOLECULE
OMN
   27    28     1     0     0
SMALL
abcg2


@<TRIPOS>ATOM
      1 C1          -2.9140     3.0110    -1.0580 c3         1 OMN       0.065900
      2 N1          -2.2010     1.8200    -0.6350 na         1 OMN       0.166800
      3 N2          -0.8970     1.7540    -0.8150 nc         1 OMN      -0.478800
      4 C2          -0.4990     0.5940    -0.3230 cd         1 OMN       0.363500
      5 C3          -1.5990    -0.1040     0.2020 cd         1 OMN      -0.068900
      6 BR1         -1.5230    -1.7550     1.0430 br         1 OMN      -0.023100
      7 C4          -2.6830     0.7210    -0.0150 cc         1 OMN      -0.270300
      8 C5          -4.1310     0.5420     0.2800 c3         1 OMN       0.393300
      9 F1          -4.8460     0.3990    -0.8430 f          1 OMN      -0.109000
     10 F2          -4.3470    -0.5310     1.0310 f          1 OMN      -0.109000
     11 F3          -4.6360     1.5980     0.9280 f          1 OMN      -0.109000
     12 C6           0.9170     0.2140    -0.3270 ca         1 OMN      -0.213500
     13 C7           1.8770     1.0190     0.2730 ca         1 OMN      -0.027000
     14 C8           3.2380     0.7220     0.2690 ca         1 OMN      -0.138600
     15 C9           4.1940     1.7250     0.9220 c          1 OMN       0.722600
     16 O1           3.6970     2.4250     1.8230 o          1 OMN      -0.700500
     17 O2           5.3510     1.7680     0.4790 o          1 OMN      -0.700500
     18 C10          3.6160    -0.4680    -0.3520 ca         1 OMN       0.182000
     19 CL1          5.2550    -1.0250    -0.3710 cl         1 OMN      -0.198000
     20 C11          2.6880    -1.3100    -0.9520 ca         1 OMN      -0.190000
     21 C12          1.3610    -0.9450    -0.9450 ca         1 OMN       0.174000
     22 F4           0.4760    -1.7340    -1.5640 f          1 OMN      -0.193000
     23 H11A        -3.8220     2.7480    -1.5930 h1         1 OMN       0.064367
     24 H12         -3.1580     3.6410    -0.2050 h1         1 OMN       0.064367
     25 H13         -2.2610     3.5570    -1.7300 h1         1 OMN       0.064367
     26 H7           1.5550     1.9230     0.7720 ha         1 OMN       0.144000
     27 H11          2.9950    -2.2320    -1.4260 ha         1 OMN       0.124000
@<TRIPOS>BOND
     1     1     2 1   
     2     1    23 1   
     3     1    24 1   
     4     1    25 1   
     5     2     3 1   
     6     2     7 1   
     7     3     4 2   
     8     4     5 1   
     9     4    12 1   
    10     5     6 1   
    11     5     7 2   
    12     7     8 1   
    13     8     9 1   
    14     8    10 1   
    15     8    11 1   
    16    12    13 ar  
    17    12    21 ar  
    18    13    14 ar  
    19    13    26 1   
    20    14    15 1   
    21    14    18 ar  
    22    15    16 1   
    23    15    17 1   
    24    18    19 1   
    25    18    20 ar  
    26    20    21 ar  
    27    20    27 1   
    28    21    22 1   
@<TRIPOS>SUBSTRUCTURE
     1 OMN         1 TEMP              0 ****  ****    0 ROOT
