@<TRIPOS>MOLECULE
OMN
   27    28     1     0     0
SMALL
No Charge or Current Charge


@<TRIPOS>ATOM
      1 C1          -2.9450     3.0340    -1.1380 c3         1 OMN       0.065900
      2 N1          -2.1940     1.8500    -0.6870 na         1 OMN       0.166800
      3 N2          -0.8290     1.8120    -0.8700 nc         1 OMN      -0.478800
      4 C2          -0.4900     0.6470    -0.3550 cd         1 OMN       0.363500
      5 C3          -1.5990    -0.0480     0.1860 cd         1 OMN      -0.068900
      6 Br1         -1.5110    -1.6930     1.1250 br         1 OMN      -0.023100
      7 C4          -2.7130     0.7190    -0.0490 cc         1 OMN      -0.270300
      8 C5          -4.1710     0.5130     0.3110 c3         1 OMN       0.393300
      9 F1          -4.9890     0.8180    -0.7220 f          1 OMN      -0.109000
     10 F2          -4.4480    -0.7630     0.6580 f          1 OMN      -0.109000
     11 F3          -4.5310     1.2960     1.3520 f          1 OMN      -0.109000
     12 C6           0.9190     0.2350    -0.3150 ca         1 OMN      -0.213500
     13 C7           1.8900     1.1020     0.2270 ca         1 OMN      -0.027000
     14 C8           3.2510     0.7340     0.2510 ca         1 OMN      -0.138600
     15 C9           4.2560     1.6740     0.8440 c          1 OMN       0.722600
     16 O1           4.0870     2.0310     2.0010 o          1 OMN      -0.700500
     17 O2           5.1390     2.1130     0.1210 o          1 OMN      -0.700500
     18 C10          3.6410    -0.5120    -0.2790 ca         1 OMN       0.182000
     19 Cl1          5.3190    -1.0550    -0.2350 cl         1 OMN      -0.198000
     20 C11          2.6810    -1.3660    -0.8440 ca         1 OMN      -0.190000
     21 C12          1.3320    -0.9900    -0.8710 ca         1 OMN       0.174000
     22 F4           0.4360    -1.8100    -1.4630 f          1 OMN      -0.193000
     23 H11A        -3.5410     2.7720    -2.0210 h1         1 OMN       0.064367
     24 H12         -3.6090     3.3760    -0.3360 h1         1 OMN       0.064367
     25 H13         -2.2520     3.8420    -1.3980 h1         1 OMN       0.064367
     26 H7           1.5880     2.0640     0.6380 ha         1 OMN       0.144000
     27 H11          2.9840    -2.3190    -1.2650 ha         1 OMN       0.124000
@<TRIPOS>BOND
     1     1     2 1   
     2     1    23 1   
     3     1    24 1   
     4     1    25 1   
     5     2     3 1   
     6     2     7 1   
     7     3     4 2   
     8     4     5 1   
     9     4    12 1   
    10     5     6 1   
    11     5     7 2   
    12     7     8 1   
    13     8     9 1   
    14     8    10 1   
    15     8    11 1   
    16    12    13 ar  
    17    12    21 ar  
    18    13    14 ar  
    19    13    26 1   
    20    14    15 1   
    21    14    18 ar  
    22    15    16 1   
    23    15    17 1   
    24    18    19 1   
    25    18    20 ar  
    26    20    21 ar  
    27    20    27 1   
    28    21    22 1   
@<TRIPOS>SUBSTRUCTURE
     1 OMN         1 TEMP              0 ****  ****    0 ROOT
