@<TRIPOS>MOLECULE
OMR
   98   101     1     0     0
SMALL
abcg2


@<TRIPOS>ATOM
      1 O3           8.7200    -6.1820    13.8350 oh         1 OMR      -0.676000
      2 O14          3.1010    -7.0230    16.9080 o          1 OMR      -0.847000
      3 P            3.5420    -5.8360    17.7310 p5         1 OMR       1.489800
      4 O13          2.5240    -4.9680    18.3890 o          1 OMR      -0.847000
      5 O6           4.6170    -6.4260    18.8080 os         1 OMR      -0.727800
      6 P1           5.2630    -5.7750    20.1810 p5         1 OMR       1.471800
      7 O12          6.4670    -6.6150    20.4670 o          1 OMR      -0.840500
      8 O11          5.3340    -4.2890    20.0980 o          1 OMR      -0.840500
      9 O7           4.0710    -6.1090    21.2630 os         1 OMR      -0.586400
     10 C21          3.6260    -7.4360    21.4390 c3         1 OMR       0.220600
     11 C22          3.8110    -7.8580    22.8910 c5         1 OMR       0.137300
     12 C23          5.2620    -8.0870    23.2940 c5         1 OMR       0.146300
     13 O9           5.3680    -7.8810    24.6830 oh         1 OMR      -0.730000
     14 C24          5.4380    -9.5590    22.9370 c5         1 OMR       0.086300
     15 O10          6.5250   -10.1210    23.6040 oh         1 OMR      -0.712000
     16 C25          4.0760   -10.1220    23.3620 c5         1 OMR       0.271300
     17 N            3.6940   -11.3310    22.6760 na         1 OMR      -0.280300
     18 C27          3.4660   -12.5530    23.2440 ca         1 OMR       0.117500
     19 N4           3.5640   -12.8980    24.5260 nb         1 OMR      -0.206000
     20 C30          3.2730   -14.1740    24.7120 ca         1 OMR       0.157900
     21 N3           2.9150   -15.0820    23.8080 nb         1 OMR      -0.322000
     22 C29          2.8210   -14.7190    22.5240 ca         1 OMR       0.440900
     23 N2           2.4630   -15.6270    21.6140 nv         1 OMR      -1.078900
     24 C28          3.1090   -13.3820    22.1930 ca         1 OMR      -0.091600
     25 N1           3.1070   -12.6930    21.0070 nc         1 OMR      -0.576100
     26 C26          3.4580   -11.4850    21.3350 cd         1 OMR       0.442700
     27 O8           3.1460    -9.1140    23.0810 os         1 OMR      -0.465000
     28 C20          4.5550    -4.9820    15.4190 c3         1 OMR       0.245600
     29 C19          5.6400    -5.8720    14.8490 c5         1 OMR       0.105300
     30 C            5.8190    -7.2470    15.4980 c5         1 OMR       0.165300
     31 O            4.8090    -8.1660    15.2690 oh         1 OMR      -0.774000
     32 O4           6.9260    -5.2930    15.0070 os         1 OMR      -0.471000
     33 C18          7.9210    -6.2990    14.9570 c5         1 OMR       0.354300
     34 C1           7.1720    -7.6460    14.9400 c5         1 OMR       0.139300
     35 O1           6.9820    -8.0990    13.6080 os         1 OMR      -0.408100
     36 C2           7.8780    -8.9180    13.0580 c          1 OMR       0.610100
     37 O2           8.8090    -9.3940    13.6550 o          1 OMR      -0.512000
     38 C3           7.5710    -9.1520    11.6050 c3         1 OMR      -0.136400
     39 C4           7.8260    -7.9040    10.7550 c3         1 OMR      -0.071400
     40 C5           7.5370    -8.1600     9.2810 c3         1 OMR      -0.075400
     41 C6           7.8360    -6.9650     8.3810 c3         1 OMR      -0.069400
     42 C7           6.9450    -5.7530     8.6390 c3         1 OMR      -0.078400
     43 C8           7.2720    -4.5460     7.7640 c3         1 OMR      -0.074400
     44 C9           7.0030    -4.7520     6.2760 c3         1 OMR      -0.075400
     45 C10          7.1800    -3.4850     5.4430 c3         1 OMR      -0.073400
     46 C11          8.6130    -2.9620     5.4160 c3         1 OMR      -0.075400
     47 C12          8.8210    -1.7680     4.4880 c3         1 OMR      -0.070400
     48 C13          7.9700    -0.5400     4.8110 c3         1 OMR      -0.073400
     49 C14          8.1670     0.0090     6.2200 c3         1 OMR      -0.077400
     50 C15          7.3690     1.2820     6.4650 c3         1 OMR      -0.088100
     51 H1           9.3830    -5.5010    13.9890 ho         1 OMR       0.442000
     52 H4           2.5620    -7.4880    21.1900 h1         1 OMR       0.034700
     53 H5           4.1400    -8.1430    20.7790 h1         1 OMR       0.034700
     54 H6           3.3470    -7.1130    23.5450 h1         1 OMR       0.094700
     55 H7           5.9490    -7.4480    22.7310 h1         1 OMR       0.134700
     56 H8           6.2470    -8.1570    24.9640 ho         1 OMR       0.508000
     57 H9           5.5450    -9.6450    21.8460 h1         1 OMR       0.080700
     58 H10          6.7050   -10.9930    23.2410 ho         1 OMR       0.507000
     59 H11          4.0940   -10.3730    24.4280 h2         1 OMR       0.095700
     60 H12          3.3260   -14.5310    25.7350 h5         1 OMR       0.031100
     61 H13          2.2620   -16.5720    21.8920 hn         1 OMR       0.499500
     62 H14          2.3800   -15.3850    20.6420 hn         1 OMR       0.499500
     63 H15          3.5560   -10.6610    20.6440 h5         1 OMR       0.099800
     64 H16          4.6880    -3.9690    15.0290 h1         1 OMR       0.022700
     65 H17          3.5990    -5.3410    15.0270 h1         1 OMR       0.022700
     66 H18          5.3960    -5.9920    13.7820 h1         1 OMR       0.029700
     67 H19          5.9880    -7.0820    16.5730 h1         1 OMR       0.086700
     68 H20          4.0720    -7.8660    15.8570 ho         1 OMR       0.604000
     69 H21          8.5170    -6.2150    15.8740 h2         1 OMR       0.060700
     70 H22          7.6800    -8.4050    15.5370 h1         1 OMR       0.084700
     71 H23          6.5250    -9.4530    11.4980 hc         1 OMR       0.059200
     72 H24          8.1890    -9.9790    11.2530 hc         1 OMR       0.059200
     73 H25          8.8670    -7.5880    10.8710 hc         1 OMR       0.059200
     74 H26          7.2090    -7.0820    11.1230 hc         1 OMR       0.059200
     75 H27          6.4880    -8.4540     9.1630 hc         1 OMR       0.031700
     76 H28          8.1320    -9.0160     8.9470 hc         1 OMR       0.031700
     77 H29          7.7330    -7.2810     7.3400 hc         1 OMR       0.028700
     78 H30          8.8850    -6.6740     8.5050 hc         1 OMR       0.028700
     79 H31          7.0320    -5.4510     9.6860 hc         1 OMR       0.049700
     80 H32          5.8960    -6.0380     8.4930 hc         1 OMR       0.049700
     81 H33          8.3200    -4.2720     7.9210 hc         1 OMR       0.037700
     82 H34          6.6820    -3.6900     8.1090 hc         1 OMR       0.037700
     83 H35          5.9790    -5.1190     6.1520 hc         1 OMR       0.035700
     84 H36          7.6550    -5.5360     5.8770 hc         1 OMR       0.035700
     85 H37          6.5080    -2.7120     5.8300 hc         1 OMR       0.034200
     86 H38          6.8540    -3.6810     4.4160 hc         1 OMR       0.034200
     87 H39          8.9300    -2.6970     6.4280 hc         1 OMR       0.039700
     88 H40          9.2800    -3.7720     5.1010 hc         1 OMR       0.039700
     89 H41          9.8770    -1.4820     4.5130 hc         1 OMR       0.030700
     90 H42          8.6170    -2.0770     3.4580 hc         1 OMR       0.030700
     91 H43          8.2050     0.2460     4.0870 hc         1 OMR       0.032700
     92 H44          6.9090    -0.7690     4.6630 hc         1 OMR       0.032700
     93 H45          7.8760    -0.7450     6.9570 hc         1 OMR       0.041700
     94 H46          9.2320     0.2010     6.3890 hc         1 OMR       0.041700
     95 H47          7.5140     1.6600     7.4780 hc         1 OMR       0.029700
     96 H48          7.6630     2.0730     5.7720 hc         1 OMR       0.029700
     97 H49          6.3000     1.1070     6.3280 hc         1 OMR       0.029700
     98 O5           4.5490    -4.8990    16.8300 os         1 OMR      -0.590400
@<TRIPOS>BOND
     1     1    33 1   
     2     1    51 1   
     3     2     3 1   
     4     3     4 1   
     5     3     5 1   
     6     3    98 1   
     7     5     6 1   
     8     6     7 1   
     9     6     8 1   
    10     6     9 1   
    11     9    10 1   
    12    10    11 1   
    13    10    52 1   
    14    10    53 1   
    15    11    12 1   
    16    11    27 1   
    17    11    54 1   
    18    12    13 1   
    19    12    14 1   
    20    12    55 1   
    21    13    56 1   
    22    14    15 1   
    23    14    16 1   
    24    14    57 1   
    25    15    58 1   
    26    16    17 1   
    27    16    27 1   
    28    16    59 1   
    29    17    18 1   
    30    17    26 1   
    31    18    19 ar  
    32    18    24 ar  
    33    19    20 ar  
    34    20    21 ar  
    35    20    60 1   
    36    21    22 ar  
    37    22    23 1   
    38    22    24 ar  
    39    23    61 1   
    40    23    62 1   
    41    24    25 1   
    42    25    26 2   
    43    26    63 1   
    44    28    29 1   
    45    28    64 1   
    46    28    65 1   
    47    28    98 1   
    48    29    30 1   
    49    29    32 1   
    50    29    66 1   
    51    30    31 1   
    52    30    34 1   
    53    30    67 1   
    54    31    68 1   
    55    32    33 1   
    56    33    34 1   
    57    33    69 1   
    58    34    35 1   
    59    34    70 1   
    60    35    36 1   
    61    36    37 2   
    62    36    38 1   
    63    38    39 1   
    64    38    71 1   
    65    38    72 1   
    66    39    40 1   
    67    39    73 1   
    68    39    74 1   
    69    40    41 1   
    70    40    75 1   
    71    40    76 1   
    72    41    42 1   
    73    41    77 1   
    74    41    78 1   
    75    42    43 1   
    76    42    79 1   
    77    42    80 1   
    78    43    44 1   
    79    43    81 1   
    80    43    82 1   
    81    44    45 1   
    82    44    83 1   
    83    44    84 1   
    84    45    46 1   
    85    45    85 1   
    86    45    86 1   
    87    46    47 1   
    88    46    87 1   
    89    46    88 1   
    90    47    48 1   
    91    47    89 1   
    92    47    90 1   
    93    48    49 1   
    94    48    91 1   
    95    48    92 1   
    96    49    50 1   
    97    49    93 1   
    98    49    94 1   
    99    50    95 1   
   100    50    96 1   
   101    50    97 1   
@<TRIPOS>SUBSTRUCTURE
     1 OMR         1 TEMP              0 ****  ****    0 ROOT
