@<TRIPOS>MOLECULE
OMR
   98   101     1     0     0
SMALL
No Charge or Current Charge


@<TRIPOS>ATOM
      1 O3           7.7770    -5.3360    13.9310 oh         1 OMR      -0.676000
      2 O14          3.9640    -9.8100    16.6620 o          1 OMR      -0.847000
      3 P            3.6300    -8.6810    17.5840 p5         1 OMR       1.489800
      4 O13          2.3480    -8.9500    18.2950 o          1 OMR      -0.847000
      5 O6           4.8870    -8.4310    18.4930 os         1 OMR      -0.727800
      6 P1           4.6460    -7.6200    19.8210 p5         1 OMR       1.471800
      7 O12          5.9350    -7.0240    20.2770 o          1 OMR      -0.840500
      8 O11          3.5970    -6.5630    19.7320 o          1 OMR      -0.840500
      9 O7           4.1930    -8.8400    20.7740 os         1 OMR      -0.586400
     10 C21          5.1490    -9.7840    21.2890 c3         1 OMR       0.220600
     11 C22          5.8690    -9.2220    22.5630 c5         1 OMR       0.137300
     12 C23          6.7500   -10.2710    23.3060 c5         1 OMR       0.146300
     13 O9           7.6660    -9.6800    24.2390 oh         1 OMR      -0.730000
     14 C24          5.6620   -11.0670    24.0960 c5         1 OMR       0.086300
     15 O10          6.2230   -11.6280    25.3060 oh         1 OMR      -0.712000
     16 C25          4.5420    -9.9840    24.3540 c5         1 OMR       0.271300
     17 N            3.1760   -10.3890    24.0200 na         1 OMR      -0.280300
     18 C27          2.4910   -11.5000    24.4440 ca         1 OMR       0.117500
     19 N4           2.8800   -12.5340    25.2180 nb         1 OMR      -0.206000
     20 C30          1.9440   -13.4830    25.4570 ca         1 OMR       0.157900
     21 N3           0.6700   -13.4950    25.0000 nb         1 OMR      -0.322000
     22 C29          0.3130   -12.4560    24.2320 ca         1 OMR       0.440900
     23 N2          -0.9700   -12.4660    23.7800 nv         1 OMR      -1.078900
     24 C28          1.2200   -11.4160    23.9320 ca         1 OMR      -0.091600
     25 N1           1.0260   -10.2650    23.1770 nc         1 OMR      -0.576100
     26 C26          2.2350    -9.6700    23.2570 cd         1 OMR       0.442700
     27 O8           4.9170    -8.8190    23.5840 os         1 OMR      -0.465000
     28 C20          3.7960    -7.2370    15.3360 c3         1 OMR       0.245600
     29 C19          5.2940    -7.2230    14.8780 c5         1 OMR       0.105300
     30 C            6.2950    -8.2530    15.4750 c5         1 OMR       0.165300
     31 O            5.9950    -9.6340    15.1890 oh         1 OMR      -0.774000
     32 O4           5.9400    -5.9700    15.1990 os         1 OMR      -0.471000
     33 C18          7.3620    -6.1440    15.0210 c5         1 OMR       0.354300
     34 C1           7.6140    -7.7060    14.8420 c5         1 OMR       0.139300
     35 O1           7.6280    -8.0660    13.4190 os         1 OMR      -0.408100
     36 C2           8.8450    -7.9240    12.7960 c          1 OMR       0.610100
     37 O2           9.9040    -7.6790    13.3620 o          1 OMR      -0.512000
     38 C3           8.7540    -8.2650    11.3050 c3         1 OMR      -0.136400
     39 C4           8.7310    -6.9850    10.4370 c3         1 OMR      -0.071400
     40 C5           8.6270    -7.2890     8.9240 c3         1 OMR      -0.075400
     41 C6           8.7240    -6.0460     8.0070 c3         1 OMR      -0.069400
     42 C7           7.5490    -5.0460     8.1510 c3         1 OMR      -0.078400
     43 C8           7.6380    -3.8180     7.2110 c3         1 OMR      -0.074400
     44 C9           7.4880    -4.1530     5.7060 c3         1 OMR      -0.075400
     45 C10          7.4300    -2.9150     4.7790 c3         1 OMR      -0.073400
     46 C11          8.7350    -2.0830     4.7460 c3         1 OMR      -0.075400
     47 C12          8.7460    -0.9530     3.6860 c3         1 OMR      -0.070400
     48 C13          7.6450     0.1270     3.8350 c3         1 OMR      -0.073400
     49 C14          7.6910     0.9130     5.1660 c3         1 OMR      -0.077400
     50 C15          6.6410     2.0380     5.2370 c3         1 OMR      -0.088100
     51 H1           7.1850    -4.5560    13.9700 ho         1 OMR       0.442000
     52 H4           4.6390   -10.7240    21.5360 h1         1 OMR       0.034700
     53 H5           5.9080   -10.0190    20.5310 h1         1 OMR       0.034700
     54 H6           6.4750    -8.3550    22.2750 h1         1 OMR       0.094700
     55 H7           7.2810   -10.9230    22.5940 h1         1 OMR       0.134700
     56 H8           7.5120   -10.2300    25.0510 ho         1 OMR       0.508000
     57 H9           5.2610   -11.8690    23.4590 h1         1 OMR       0.080700
     58 H10          5.5520   -12.2470    25.6820 ho         1 OMR       0.507000
     59 H11          4.5160    -9.7140    25.4170 h2         1 OMR       0.095700
     60 H12          2.2480   -14.3210    26.0820 h5         1 OMR       0.031100
     61 H13         -1.6390   -13.0620    24.2600 hn         1 OMR       0.499500
     62 H14         -1.3270   -11.5970    23.3880 hn         1 OMR       0.499500
     63 H15          2.4920    -8.7200    22.8030 h5         1 OMR       0.099800
     64 H16          3.3110    -6.3350    14.9410 h1         1 OMR       0.022700
     65 H17          3.2960    -8.0900    14.8580 h1         1 OMR       0.022700
     66 H18          5.2710    -7.3090    13.7830 h1         1 OMR       0.029700
     67 H19          6.3630    -8.1110    16.5620 h1         1 OMR       0.086700
     68 H20          5.1660    -9.8330    15.7530 ho         1 OMR       0.604000
     69 H21          7.8640    -5.8030    15.9370 h2         1 OMR       0.060700
     70 H22          8.5050    -8.0780    15.3670 h1         1 OMR       0.084700
     71 H23          7.8230    -8.8120    11.1130 hc         1 OMR       0.059200
     72 H24          9.6220    -8.8730    11.0220 hc         1 OMR       0.059200
     73 H25          9.6420    -6.4040    10.6280 hc         1 OMR       0.059200
     74 H26          7.8830    -6.3630    10.7490 hc         1 OMR       0.059200
     75 H27          7.6850    -7.8130     8.7220 hc         1 OMR       0.031700
     76 H28          9.4340    -7.9790     8.6490 hc         1 OMR       0.031700
     77 H29          8.7720    -6.4000     6.9710 hc         1 OMR       0.028700
     78 H30          9.6700    -5.5260     8.2040 hc         1 OMR       0.028700
     79 H31          7.5150    -4.6780     9.1830 hc         1 OMR       0.049700
     80 H32          6.6010    -5.5690     7.9730 hc         1 OMR       0.049700
     81 H33          8.5930    -3.3090     7.3860 hc         1 OMR       0.037700
     82 H34          6.8490    -3.1110     7.4940 hc         1 OMR       0.037700
     83 H35          6.5680    -4.7340     5.5640 hc         1 OMR       0.035700
     84 H36          8.3170    -4.7940     5.3830 hc         1 OMR       0.035700
     85 H37          6.5930    -2.2790     5.0910 hc         1 OMR       0.034200
     86 H38          7.2030    -3.2570     3.7620 hc         1 OMR       0.034200
     87 H39          8.9280    -1.6530     5.7360 hc         1 OMR       0.039700
     88 H40          9.5760    -2.7560     4.5350 hc         1 OMR       0.039700
     89 H41          9.7260    -0.4610     3.7110 hc         1 OMR       0.030700
     90 H42          8.6580    -1.4050     2.6900 hc         1 OMR       0.030700
     91 H43          7.7500     0.8370     3.0050 hc         1 OMR       0.032700
     92 H44          6.6570    -0.3350     3.7170 hc         1 OMR       0.032700
     93 H45          7.5240     0.2280     6.0060 hc         1 OMR       0.041700
     94 H46          8.6900     1.3470     5.2980 hc         1 OMR       0.041700
     95 H47          6.7090     2.5650     6.1960 hc         1 OMR       0.029700
     96 H48          6.7980     2.7670     4.4330 hc         1 OMR       0.029700
     97 H49          5.6270     1.6290     5.1410 hc         1 OMR       0.029700
     98 O5           3.6190    -7.2910    16.7660 os         1 OMR      -0.590400
@<TRIPOS>BOND
     1     1    33 1   
     2     1    51 1   
     3     2     3 1   
     4     3     4 1   
     5     3     5 1   
     6     3    98 1   
     7     5     6 1   
     8     6     7 1   
     9     6     8 1   
    10     6     9 1   
    11     9    10 1   
    12    10    11 1   
    13    10    52 1   
    14    10    53 1   
    15    11    12 1   
    16    11    27 1   
    17    11    54 1   
    18    12    13 1   
    19    12    14 1   
    20    12    55 1   
    21    13    56 1   
    22    14    15 1   
    23    14    16 1   
    24    14    57 1   
    25    15    58 1   
    26    16    17 1   
    27    16    27 1   
    28    16    59 1   
    29    17    18 1   
    30    17    26 1   
    31    18    19 ar  
    32    18    24 ar  
    33    19    20 ar  
    34    20    21 ar  
    35    20    60 1   
    36    21    22 ar  
    37    22    23 1   
    38    22    24 ar  
    39    23    61 1   
    40    23    62 1   
    41    24    25 1   
    42    25    26 2   
    43    26    63 1   
    44    28    29 1   
    45    28    64 1   
    46    28    65 1   
    47    28    98 1   
    48    29    30 1   
    49    29    32 1   
    50    29    66 1   
    51    30    31 1   
    52    30    34 1   
    53    30    67 1   
    54    31    68 1   
    55    32    33 1   
    56    33    34 1   
    57    33    69 1   
    58    34    35 1   
    59    34    70 1   
    60    35    36 1   
    61    36    37 2   
    62    36    38 1   
    63    38    39 1   
    64    38    71 1   
    65    38    72 1   
    66    39    40 1   
    67    39    73 1   
    68    39    74 1   
    69    40    41 1   
    70    40    75 1   
    71    40    76 1   
    72    41    42 1   
    73    41    77 1   
    74    41    78 1   
    75    42    43 1   
    76    42    79 1   
    77    42    80 1   
    78    43    44 1   
    79    43    81 1   
    80    43    82 1   
    81    44    45 1   
    82    44    83 1   
    83    44    84 1   
    84    45    46 1   
    85    45    85 1   
    86    45    86 1   
    87    46    47 1   
    88    46    87 1   
    89    46    88 1   
    90    47    48 1   
    91    47    89 1   
    92    47    90 1   
    93    48    49 1   
    94    48    91 1   
    95    48    92 1   
    96    49    50 1   
    97    49    93 1   
    98    49    94 1   
    99    50    95 1   
   100    50    96 1   
   101    50    97 1   
@<TRIPOS>SUBSTRUCTURE
     1 OMR         1 TEMP              0 ****  ****    0 ROOT
