@<TRIPOS>MOLECULE
OMS
  104   110     1     0     0
SMALL
No Charge or Current Charge


@<TRIPOS>ATOM
      1 C10         -0.0820     2.6520    -1.2360 c          1 OMS       0.596100
      2 C17          5.5500     3.1360     0.2500 cy         1 OMS       0.189000
      3 C21          3.0690    -1.7500    -1.7940 ca         1 OMS       0.551300
      4 C24          5.4530    -1.9170    -0.4740 ca         1 OMS       0.161000
      5 C26          4.3170    -1.8890    -2.4850 ca         1 OMS       0.317300
      6 C28          5.4020    -1.7880     2.3570 ca         1 OMS       0.158100
      7 C01         -1.0200     0.6040    -2.3690 c5         1 OMS       0.029700
      8 C02         -0.2890    -0.6730    -2.8920 c5         1 OMS      -0.087400
      9 C03          0.8660    -0.8720    -1.8700 c5         1 OMS       0.165300
     10 C04          1.3570     0.5900    -1.6510 c5         1 OMS       0.079000
     11 C06         -2.1160     0.2250    -1.3210 c          1 OMS       0.580100
     12 C09         -4.6200     0.1040    -1.1810 cx         1 OMS      -0.059600
     13 C11          0.6790     3.0270     0.0730 c3         1 OMS       0.055700
     14 C18         -0.1200     3.9990     0.9810 c3         1 OMS      -0.076400
     15 C19         -1.4410     3.3510     1.4730 c3         1 OMS      -0.083400
     16 C23          4.2050    -1.8010     0.2260 ca         1 OMS       0.304000
     17 C27          4.2060    -1.7420     1.6280 ca         1 OMS      -0.132000
     18 C29          6.6290    -1.9020     1.6740 ca         1 OMS      -0.192000
     19 C30          6.6460    -1.9670     0.2700 ca         1 OMS      -0.028000
     20 C32          6.4900    -1.7340     4.5720 c3         1 OMS       0.148900
     21 C33          4.3910    -1.9250    -4.0050 c3         1 OMS      -0.135400
     22 C34         -4.7410    -0.9790    -0.0960 c          1 OMS       0.685100
     23 C40         -6.7040    -3.6620     0.7340 cx         1 OMS      -0.406000
     24 C41         -7.0840    -3.0150     2.0550 cx         1 OMS      -0.067900
     25 C42         -7.1140    -4.5210     1.9170 cx         1 OMS      -0.067900
     26 C43         -7.6450    -3.5350    -0.4700 c3         1 OMS      -0.041100
     27 C44         -5.3840     1.4170    -1.0520 cx         1 OMS      -0.031500
     28 C45         -6.1620     1.7680     0.1780 c2         1 OMS      -0.197200
     29 C46         -5.8610     2.7420     1.0600 c2         1 OMS      -0.184200
     30 C47         -4.6720     3.6870     1.0080 c3         1 OMS      -0.057200
     31 C48         -3.8490     3.7020     2.3220 c3         1 OMS      -0.070400
     32 C49         -5.8800     0.3450    -1.9900 cx         1 OMS      -0.108400
     33 C50         -2.4320     4.3140     2.1670 c3         1 OMS      -0.068400
     34 C51          5.9030     3.8860     1.5560 c3         1 OMS      -0.103100
     35 C52          5.7760     1.5770     0.2010 cy         1 OMS      -0.092900
     36 C53          7.2300     1.8790    -0.2810 cy         1 OMS      -0.095400
     37 C54          6.6280     3.1870    -0.8900 cy         1 OMS      -0.092900
     38 N05          0.0890     1.3440    -1.7200 n          1 OMS      -0.393800
     39 N08         -3.3640     0.1890    -1.9170 ns         1 OMS      -0.486900
     40 N13          2.0430     3.5050    -0.2290 ns         1 OMS      -0.510900
     41 N22          3.0190    -1.7320    -0.4320 nb         1 OMS      -0.735000
     42 N25          5.5080    -1.9690    -1.8300 nb         1 OMS      -0.615000
     43 N35         -4.7290    -2.2330    -0.6100 ns         1 OMS      -0.574300
     44 O07         -1.9400     0.0410    -0.1240 o          1 OMS      -0.552100
     45 O12         -0.9010     3.3970    -1.7620 o          1 OMS      -0.604100
     46 O15          4.2610     3.5750    -0.2110 os         1 OMS      -0.456100
     47 O16          3.1460     2.3740     1.4260 o          1 OMS      -0.535000
     48 O20          1.9000    -1.6510    -2.5460 os         1 OMS      -0.454300
     49 O31          5.3220    -1.7150     3.7330 os         1 OMS      -0.333100
     50 O36         -4.8410    -0.7430     1.0990 o          1 OMS      -0.549100
     51 O38         -4.0690    -3.6340     1.4100 o          1 OMS      -0.523500
     52 O39         -4.7280    -4.7470    -0.7790 o          1 OMS      -0.523500
     53 S37         -4.9030    -3.6720     0.2040 s6         1 OMS       1.259800
     54 H011        -1.4760     1.1800    -3.1850 h1         1 OMS       0.080700
     55 H022        -0.9490    -1.5460    -2.9560 hc         1 OMS       0.071200
     56 H021         0.1090    -0.4980    -3.8980 hc         1 OMS       0.071200
     57 H031         0.5220    -1.3560    -0.9440 h1         1 OMS       0.095700
     58 H042         1.8650     0.6990    -0.6850 h1         1 OMS       0.076200
     59 H041         2.0420     0.9150    -2.4460 h1         1 OMS       0.076200
     60 H111         0.7680     2.0880     0.6340 h1         1 OMS       0.100700
     61 H181         0.4890     4.2770     1.8500 hc         1 OMS       0.055700
     62 H182        -0.3340     4.9230     0.4300 hc         1 OMS       0.055700
     63 H191        -1.9460     2.8810     0.6240 hc         1 OMS       0.050700
     64 H192        -1.2020     2.5310     2.1630 hc         1 OMS       0.050700
     65 H271         3.2630    -1.6500     2.1570 ha         1 OMS       0.155000
     66 H291         7.5740    -1.9400     2.2080 ha         1 OMS       0.122000
     67 H301         7.5970    -2.0520    -0.2510 ha         1 OMS       0.130000
     68 H322         7.0530    -2.6660     4.4380 h1         1 OMS       0.042367
     69 H323         7.1490    -0.8870     4.3420 h1         1 OMS       0.042367
     70 H321         6.2000    -1.6620     5.6280 h1         1 OMS       0.042367
     71 H332         3.9990    -0.9960    -4.4350 hc         1 OMS       0.056700
     72 H333         5.4200    -2.0500    -4.3640 hc         1 OMS       0.056700
     73 H331         3.7970    -2.7560    -4.4030 hc         1 OMS       0.056700
     74 H411        -6.2980    -2.5830     2.6730 hc         1 OMS       0.091200
     75 H412        -8.0370    -2.4940     2.1190 hc         1 OMS       0.091200
     76 H422        -8.0890    -5.0050     1.8910 hc         1 OMS       0.091200
     77 H421        -6.3470    -5.0890     2.4400 hc         1 OMS       0.091200
     78 H432        -8.6970    -3.5610    -0.1600 hc         1 OMS       0.047033
     79 H433        -7.4880    -2.5910    -1.0050 hc         1 OMS       0.047033
     80 H431        -7.4940    -4.3560    -1.1820 hc         1 OMS       0.047033
     81 H441        -4.9380     2.2820    -1.5390 hc         1 OMS       0.094700
     82 H451        -7.0560     1.1640     0.3470 ha         1 OMS       0.189000
     83 H461        -6.5140     2.9040     1.9200 ha         1 OMS       0.169000
     84 H471        -4.0180     3.4310     0.1690 hc         1 OMS       0.053200
     85 H472        -5.0210     4.7070     0.8060 hc         1 OMS       0.053200
     86 H481        -4.4060     4.2670     3.0790 hc         1 OMS       0.042200
     87 H482        -3.7530     2.6780     2.7060 hc         1 OMS       0.042200
     88 H491        -5.7800     0.5250    -3.0580 hc         1 OMS       0.083700
     89 H492        -6.7810    -0.1960    -1.7100 hc         1 OMS       0.083700
     90 H501        -2.0370     4.5750     3.1560 hc         1 OMS       0.038200
     91 H502        -2.5060     5.2500     1.5990 hc         1 OMS       0.038200
     92 H513         5.2780     3.5600     2.3940 hc         1 OMS       0.050367
     93 H511         6.9460     3.7220     1.8500 hc         1 OMS       0.050367
     94 H512         5.7660     4.9670     1.4330 hc         1 OMS       0.050367
     95 H522         5.6890     1.0510     1.1570 hc         1 OMS       0.063700
     96 H521         5.1570     1.0560    -0.5400 hc         1 OMS       0.063700
     97 H531         7.9580     2.0350     0.5240 hc         1 OMS       0.055200
     98 H532         7.6520     1.1660    -0.9970 hc         1 OMS       0.055200
     99 H541         6.2200     3.0650    -1.9010 hc         1 OMS       0.063700
    100 H542         7.2850     4.0630    -0.8890 hc         1 OMS       0.063700
    101 H081        -3.3890     0.3510    -2.9180 hn         1 OMS       0.319500
    102 H131         2.2000     4.1050    -1.0310 hn         1 OMS       0.331500
    103 H351        -4.6520    -2.3610    -1.6030 hn         1 OMS       0.346500
    104 C14          3.1600     3.0910     0.4390 c          1 OMS       0.643100
@<TRIPOS>BOND
     1     1    13 1   
     2     1    38 1   
     3     1    45 2   
     4     2    34 1   
     5     2    35 1   
     6     2    37 1   
     7     2    46 1   
     8     3     5 ar  
     9     3    41 ar  
    10     3    48 1   
    11     4    16 ar  
    12     4    19 ar  
    13     4    42 ar  
    14     5    21 1   
    15     5    42 ar  
    16     6    17 ar  
    17     6    18 ar  
    18     6    49 1   
    19     7     8 1   
    20     7    11 1   
    21     7    38 1   
    22     7    54 1   
    23     8     9 1   
    24     8    55 1   
    25     8    56 1   
    26     9    10 1   
    27     9    48 1   
    28     9    57 1   
    29    10    38 1   
    30    10    58 1   
    31    10    59 1   
    32    11    39 1   
    33    11    44 2   
    34    12    22 1   
    35    12    27 1   
    36    12    32 1   
    37    12    39 1   
    38    13    14 1   
    39    13    40 1   
    40    13    60 1   
    41    14    15 1   
    42    14    61 1   
    43    14    62 1   
    44    15    33 1   
    45    15    63 1   
    46    15    64 1   
    47    16    17 ar  
    48    16    41 ar  
    49    17    65 1   
    50    18    19 ar  
    51    18    66 1   
    52    19    67 1   
    53    20    49 1   
    54    20    68 1   
    55    20    69 1   
    56    20    70 1   
    57    21    71 1   
    58    21    72 1   
    59    21    73 1   
    60    22    43 1   
    61    22    50 2   
    62    23    24 1   
    63    23    25 1   
    64    23    26 1   
    65    23    53 1   
    66    24    25 1   
    67    24    74 1   
    68    24    75 1   
    69    25    76 1   
    70    25    77 1   
    71    26    78 1   
    72    26    79 1   
    73    26    80 1   
    74    27    28 1   
    75    27    32 1   
    76    27    81 1   
    77    28    29 2   
    78    28    82 1   
    79    29    30 1   
    80    29    83 1   
    81    30    31 1   
    82    30    84 1   
    83    30    85 1   
    84    31    33 1   
    85    31    86 1   
    86    31    87 1   
    87    32    88 1   
    88    32    89 1   
    89    33    90 1   
    90    33    91 1   
    91    34    92 1   
    92    34    93 1   
    93    34    94 1   
    94    35    36 1   
    95    35    95 1   
    96    35    96 1   
    97    36    37 1   
    98    36    97 1   
    99    36    98 1   
   100    37    99 1   
   101    37   100 1   
   102    39   101 1   
   103    40   102 1   
   104    40   104 1   
   105    43    53 1   
   106    43   103 1   
   107    46   104 1   
   108    47   104 2   
   109    51    53 2   
   110    52    53 2   
@<TRIPOS>SUBSTRUCTURE
     1 OMS         1 TEMP              0 ****  ****    0 ROOT
