@<TRIPOS>MOLECULE
OMS
  104   110     1     0     0
SMALL
abcg2


@<TRIPOS>ATOM
      1 C10         -0.4440     2.6940    -0.7620 c          1 OMS       0.596100
      2 C17          5.2640     2.8860    -0.5620 cy         1 OMS       0.189000
      3 C21          2.7080    -1.7600    -1.2270 ca         1 OMS       0.551300
      4 C24          4.9930    -2.2850     0.0300 ca         1 OMS       0.161000
      5 C26          3.8000    -2.4000    -1.9200 ca         1 OMS       0.317300
      6 C28          5.1980    -1.5410     2.7190 ca         1 OMS       0.158100
      7 C01         -1.1720     0.7850    -2.0260 c5         1 OMS       0.029700
      8 C02         -0.4910    -0.5230    -2.4400 c5         1 OMS      -0.087400
      9 C03          0.5860    -0.7310    -1.3850 c5         1 OMS       0.165300
     10 C04          1.0300     0.6860    -1.0180 c5         1 OMS       0.079000
     11 C06         -2.3520     0.5460    -1.0850 c          1 OMS       0.580100
     12 C09         -4.7500     0.4040    -0.9100 cx         1 OMS      -0.059600
     13 C11          0.5440     3.2700     0.2600 c3         1 OMS       0.055700
     14 C18         -0.0790     4.4230     1.0410 c3         1 OMS      -0.076400
     15 C19         -1.1360     3.8920     2.0100 c3         1 OMS      -0.083400
     16 C23          3.9060    -1.6780     0.6930 ca         1 OMS       0.304000
     17 C27          4.0190    -1.3100     2.0370 ca         1 OMS      -0.132000
     18 C29          6.2900    -2.1480     2.0600 ca         1 OMS      -0.192000
     19 C30          6.1810    -2.5090     0.7400 ca         1 OMS      -0.028000
     20 C32          6.4220    -1.3500     4.7490 c3         1 OMS       0.148900
     21 C33          3.6740    -2.7700    -3.3610 c3         1 OMS      -0.135400
     22 C34         -5.0400    -0.8450    -0.1420 c          1 OMS       0.685100
     23 C40         -5.7960    -4.2030    -0.3390 cx         1 OMS      -0.406000
     24 C41         -7.0090    -3.9830     0.5120 cx         1 OMS      -0.067900
     25 C42         -6.2940    -5.2900     0.5760 cx         1 OMS      -0.067900
     26 C43         -5.9140    -4.3560    -1.8330 c3         1 OMS      -0.041100
     27 C44         -5.1810     1.7690    -0.3700 cx         1 OMS      -0.031500
     28 C45         -5.7960     2.0390     0.9440 c2         1 OMS      -0.197200
     29 C46         -5.4200     3.0250     1.7630 c2         1 OMS      -0.184200
     30 C47         -4.2850     3.9810     1.5650 c3         1 OMS      -0.057200
     31 C48         -3.4890     4.2700     2.8420 c3         1 OMS      -0.070400
     32 C49         -5.9330     1.1300    -1.4870 cx         1 OMS      -0.108400
     33 C50         -2.1460     4.9250     2.5140 c3         1 OMS      -0.068400
     34 C51          6.0000     3.6960     0.4870 c3         1 OMS      -0.103100
     35 C52          5.3780     1.3630    -0.3730 cy         1 OMS      -0.092900
     36 C53          6.5520     1.3760    -1.3680 cy         1 OMS      -0.095400
     37 C54          6.0560     2.7470    -1.8710 cy         1 OMS      -0.092900
     38 N05         -0.1400     1.4960    -1.3000 n          1 OMS      -0.393800
     39 N08         -3.5560     0.4050    -1.6900 ns         1 OMS      -0.486900
     40 N13          1.7870     3.5780    -0.4040 ns         1 OMS      -0.510900
     41 N22          2.7530    -1.4280     0.0180 nb         1 OMS      -0.735000
     42 N25          4.9010    -2.6400    -1.2790 nb         1 OMS      -0.615000
     43 N35         -4.3010    -1.9290    -0.5510 ns         1 OMS      -0.574300
     44 O07         -2.2140     0.4380     0.1170 o          1 OMS      -0.552100
     45 O12         -1.4760     3.2710    -1.0700 o          1 OMS      -0.604100
     46 O15          3.9570     3.4290    -0.7990 os         1 OMS      -0.456100
     47 O16          3.1330     2.5360     1.1020 o          1 OMS      -0.535000
     48 O20          1.6270    -1.5080    -1.9620 os         1 OMS      -0.454300
     49 O31          5.2330    -1.1570     4.0060 os         1 OMS      -0.333100
     50 O36         -5.8780    -0.9140     0.7260 o          1 OMS      -0.549100
     51 O38         -4.2790    -3.2710     1.6160 o          1 OMS      -0.523500
     52 O39         -3.1770    -4.1150    -0.4710 o          1 OMS      -0.523500
     53 S37         -4.2900    -3.4420     0.1770 s6         1 OMS       1.259800
     54 H011        -1.5050     1.3410    -2.9050 h1         1 OMS       0.080700
     55 H022        -1.1840    -1.3600    -2.5210 hc         1 OMS       0.071200
     56 H021        -0.0230    -0.3850    -3.4160 hc         1 OMS       0.071200
     57 H031         0.1900    -1.2410    -0.5020 h1         1 OMS       0.095700
     58 H042         1.3400     0.7520     0.0220 h1         1 OMS       0.076200
     59 H041         1.8750     0.9920    -1.6440 h1         1 OMS       0.076200
     60 H111         0.7580     2.4760     0.9800 h1         1 OMS       0.100700
     61 H181         0.7130     4.9400     1.5870 hc         1 OMS       0.055700
     62 H182        -0.5210     5.1490     0.3560 hc         1 OMS       0.055700
     63 H191        -1.6880     3.0840     1.5220 hc         1 OMS       0.050700
     64 H192        -0.6390     3.4230     2.8640 hc         1 OMS       0.050700
     65 H271         3.1810    -0.8310     2.5280 ha         1 OMS       0.155000
     66 H291         7.2190    -2.3360     2.5800 ha         1 OMS       0.122000
     67 H301         7.0170    -2.9720     0.2310 ha         1 OMS       0.130000
     68 H322         6.6870    -2.4060     4.8310 h1         1 OMS       0.042367
     69 H323         7.2660    -0.8040     4.3210 h1         1 OMS       0.042367
     70 H321         6.2260    -0.9610     5.7460 h1         1 OMS       0.042367
     71 H332         3.4450    -1.8970    -3.9750 hc         1 OMS       0.056700
     72 H333         4.6040    -3.2080    -3.7130 hc         1 OMS       0.056700
     73 H331         2.8700    -3.4910    -3.5180 hc         1 OMS       0.056700
     74 H411        -6.9400    -3.3220     1.3630 hc         1 OMS       0.091200
     75 H412        -7.9460    -3.9260    -0.0270 hc         1 OMS       0.091200
     76 H422        -6.7200    -6.1510     0.0790 hc         1 OMS       0.091200
     77 H421        -5.7390    -5.5240     1.4750 hc         1 OMS       0.091200
     78 H432        -6.8640    -4.8360    -2.0650 hc         1 OMS       0.047033
     79 H433        -5.9050    -3.3930    -2.3430 hc         1 OMS       0.047033
     80 H431        -5.1190    -4.9780    -2.2400 hc         1 OMS       0.047033
     81 H441        -4.4750     2.5230    -0.6980 hc         1 OMS       0.094700
     82 H451        -6.6500     1.4370     1.2260 ha         1 OMS       0.189000
     83 H461        -6.0050     3.1620     2.6690 ha         1 OMS       0.169000
     84 H471        -3.6080     3.6090     0.7940 hc         1 OMS       0.053200
     85 H472        -4.6730     4.9340     1.1870 hc         1 OMS       0.053200
     86 H481        -4.0810     4.9080     3.5020 hc         1 OMS       0.042200
     87 H482        -3.3120     3.3400     3.3930 hc         1 OMS       0.042200
     88 H491        -5.8250     1.5290    -2.4880 hc         1 OMS       0.083700
     89 H492        -6.9090     0.7130    -1.2700 hc         1 OMS       0.083700
     90 H501        -1.7480     5.4460     3.3880 hc         1 OMS       0.038200
     91 H502        -2.3050     5.6930     1.7490 hc         1 OMS       0.038200
     92 H513         5.5340     3.6060     1.4680 hc         1 OMS       0.050367
     93 H511         7.0300     3.3470     0.5770 hc         1 OMS       0.050367
     94 H512         6.0340     4.7500     0.2090 hc         1 OMS       0.050367
     95 H522         5.5500     0.9940     0.6370 hc         1 OMS       0.063700
     96 H521         4.5160     0.8390    -0.7900 hc         1 OMS       0.063700
     97 H531         7.5210     1.4380    -0.8730 hc         1 OMS       0.055200
     98 H532         6.5870     0.5670    -2.0960 hc         1 OMS       0.055200
     99 H541         5.3910     2.6360    -2.7280 hc         1 OMS       0.063700
    100 H542         6.7950     3.5190    -2.0900 hc         1 OMS       0.063700
    101 H081        -3.6330     0.5650    -2.6830 hn         1 OMS       0.319500
    102 H131         1.7640     4.0990    -1.2670 hn         1 OMS       0.331500
    103 H351        -3.6880    -1.8340    -1.3520 hn         1 OMS       0.346500
    104 C14          2.9790     3.1350     0.0580 c          1 OMS       0.643100
@<TRIPOS>BOND
     1     1    13 1   
     2     1    38 1   
     3     1    45 2   
     4     2    34 1   
     5     2    35 1   
     6     2    37 1   
     7     2    46 1   
     8     3     5 ar  
     9     3    41 ar  
    10     3    48 1   
    11     4    16 ar  
    12     4    19 ar  
    13     4    42 ar  
    14     5    21 1   
    15     5    42 ar  
    16     6    17 ar  
    17     6    18 ar  
    18     6    49 1   
    19     7     8 1   
    20     7    11 1   
    21     7    38 1   
    22     7    54 1   
    23     8     9 1   
    24     8    55 1   
    25     8    56 1   
    26     9    10 1   
    27     9    48 1   
    28     9    57 1   
    29    10    38 1   
    30    10    58 1   
    31    10    59 1   
    32    11    39 1   
    33    11    44 2   
    34    12    22 1   
    35    12    27 1   
    36    12    32 1   
    37    12    39 1   
    38    13    14 1   
    39    13    40 1   
    40    13    60 1   
    41    14    15 1   
    42    14    61 1   
    43    14    62 1   
    44    15    33 1   
    45    15    63 1   
    46    15    64 1   
    47    16    17 ar  
    48    16    41 ar  
    49    17    65 1   
    50    18    19 ar  
    51    18    66 1   
    52    19    67 1   
    53    20    49 1   
    54    20    68 1   
    55    20    69 1   
    56    20    70 1   
    57    21    71 1   
    58    21    72 1   
    59    21    73 1   
    60    22    43 1   
    61    22    50 2   
    62    23    24 1   
    63    23    25 1   
    64    23    26 1   
    65    23    53 1   
    66    24    25 1   
    67    24    74 1   
    68    24    75 1   
    69    25    76 1   
    70    25    77 1   
    71    26    78 1   
    72    26    79 1   
    73    26    80 1   
    74    27    28 1   
    75    27    32 1   
    76    27    81 1   
    77    28    29 2   
    78    28    82 1   
    79    29    30 1   
    80    29    83 1   
    81    30    31 1   
    82    30    84 1   
    83    30    85 1   
    84    31    33 1   
    85    31    86 1   
    86    31    87 1   
    87    32    88 1   
    88    32    89 1   
    89    33    90 1   
    90    33    91 1   
    91    34    92 1   
    92    34    93 1   
    93    34    94 1   
    94    35    36 1   
    95    35    95 1   
    96    35    96 1   
    97    36    37 1   
    98    36    97 1   
    99    36    98 1   
   100    37    99 1   
   101    37   100 1   
   102    39   101 1   
   103    40   102 1   
   104    40   104 1   
   105    43    53 1   
   106    43   103 1   
   107    46   104 1   
   108    47   104 2   
   109    51    53 2   
   110    52    53 2   
@<TRIPOS>SUBSTRUCTURE
     1 OMS         1 TEMP              0 ****  ****    0 ROOT
