@<TRIPOS>MOLECULE
OMT
   21    20     1     0     0
SMALL
No Charge or Current Charge


@<TRIPOS>ATOM
      1 N           56.7560    15.1810    10.4810 n8         1 OMT      -0.888800
      2 CA          56.4820    16.5030    11.1620 c3         1 OMT       0.011500
      3 CB          56.4310    16.2760    12.7040 c3         1 OMT      -0.015400
      4 CG          55.9930    17.4870    13.5800 c3         1 OMT      -0.140600
      5 SD          54.2800    18.0520    13.3810 s6         1 OMT       0.978000
      6 CE          53.2590    16.5770    13.4950 c3         1 OMT      -0.229300
      7 C           57.4150    17.7280    10.7310 c          1 OMT       0.943600
      8 O           57.1600    18.3100     9.6810 o          1 OMT      -0.832800
      9 OXT         58.3850    18.0270    11.4220 o          1 OMT      -0.832800
     10 OD1         53.9540    18.9060    14.5320 o          1 OMT      -0.607800
     11 OD2         54.1210    18.6060    12.0290 o          1 OMT      -0.607800
     12 H           56.6570    15.2980     9.4660 hn         1 OMT       0.328300
     13 H2          56.0280    14.5060    10.7340 hn         1 OMT       0.328300
     14 HA          55.4680    16.7720    10.8420 h1         1 OMT       0.007700
     15 HB2         55.7760    15.4240    12.9250 hc         1 OMT       0.030200
     16 HB3         57.4300    15.9700    13.0380 hc         1 OMT       0.030200
     17 HG2         56.0830    17.2190    14.6380 h1         1 OMT       0.110700
     18 HG3         56.6250    18.3610    13.3940 h1         1 OMT       0.110700
     19 HE1         52.2120    16.8970    13.4800 h1         1 OMT       0.092367
     20 HE2         53.4810    15.9390    12.6330 h1         1 OMT       0.092367
     21 HE3         53.4990    16.0700    14.4360 h1         1 OMT       0.092367
@<TRIPOS>BOND
     1     1     2 1   
     2     1    12 1   
     3     1    13 1   
     4     2     3 1   
     5     2     7 1   
     6     2    14 1   
     7     3     4 1   
     8     3    15 1   
     9     3    16 1   
    10     4     5 1   
    11     4    17 1   
    12     4    18 1   
    13     5     6 1   
    14     5    10 2   
    15     5    11 2   
    16     6    19 1   
    17     6    20 1   
    18     6    21 1   
    19     7     8 1   
    20     7     9 1   
@<TRIPOS>SUBSTRUCTURE
     1 OMT         1 TEMP              0 ****  ****    0 ROOT
