@<TRIPOS>MOLECULE
OMT
   21    20     1     0     0
SMALL
bcc


@<TRIPOS>ATOM
      1 N           56.5770    15.2540    10.5560 n8         1 OMT      -0.888800
      2 CA          56.3810    16.5550    11.1870 c3         1 OMT       0.011500
      3 CB          56.4460    16.3540    12.7010 c3         1 OMT      -0.015400
      4 CG          56.0120    17.4940    13.6120 c3         1 OMT      -0.140600
      5 SD          54.3010    18.0260    13.4990 s6         1 OMT       0.978000
      6 CE          53.3410    16.5290    13.4080 c3         1 OMT      -0.229300
      7 C           57.4300    17.5560    10.6380 c          1 OMT       0.943600
      8 O           57.7310    17.4240     9.4350 o          1 OMT      -0.832800
      9 OXT         57.8620    18.4260    11.4210 o          1 OMT      -0.832800
     10 OD1         53.9670    18.7090    14.7520 o          1 OMT      -0.607800
     11 OD2         54.0890    18.7760    12.2590 o          1 OMT      -0.607800
     12 H           56.7430    15.4100     9.5710 hn         1 OMT       0.328300
     13 H2          55.7270    14.7080    10.6250 hn         1 OMT       0.328300
     14 HA          55.3980    16.9820    10.9300 h1         1 OMT       0.007700
     15 HB2         55.8690    15.4620    12.9630 hc         1 OMT       0.030200
     16 HB3         57.4760    16.1200    12.9810 hc         1 OMT       0.030200
     17 HG2         56.1450    17.2060    14.6560 h1         1 OMT       0.110700
     18 HG3         56.5910    18.3970    13.4200 h1         1 OMT       0.110700
     19 HE1         52.2940    16.8290    13.4030 h1         1 OMT       0.092367
     20 HE2         53.5710    15.9890    12.4920 h1         1 OMT       0.092367
     21 HE3         53.5440    15.9050    14.2760 h1         1 OMT       0.092367
@<TRIPOS>BOND
     1     1     2 1   
     2     1    12 1   
     3     1    13 1   
     4     2     3 1   
     5     2     7 1   
     6     2    14 1   
     7     3     4 1   
     8     3    15 1   
     9     3    16 1   
    10     4     5 1   
    11     4    17 1   
    12     4    18 1   
    13     5     6 1   
    14     5    10 2   
    15     5    11 2   
    16     6    19 1   
    17     6    20 1   
    18     6    21 1   
    19     7     8 1   
    20     7     9 1   
@<TRIPOS>SUBSTRUCTURE
     1 OMT         1 TEMP              0 ****  ****    0 ROOT
