@<TRIPOS>MOLECULE
OMV
  110   116     1     0     0
SMALL
bcc


@<TRIPOS>ATOM
      1 C10        -15.9800   -20.3310    15.8160 c          1 OMV       0.658100
      2 C17        -19.2940   -17.5870    13.3100 c5         1 OMV       0.191800
      3 C21        -13.4430   -15.8180    16.3460 ca         1 OMV       0.554300
      4 C24        -12.0660   -13.5950    15.8630 ca         1 OMV       0.231300
      5 C26        -13.9070   -14.8610    15.3750 ca         1 OMV       0.320300
      6 C28         -9.6860   -13.2070    17.2830 ca         1 OMV       0.165100
      7 C01        -13.6780   -19.6290    15.7400 c5         1 OMV       0.030700
      8 C02        -12.8100   -18.8280    16.7150 c5         1 OMV      -0.111400
      9 C03        -13.8160   -17.9160    17.4030 c5         1 OMV       0.141100
     10 C04        -15.0210   -18.8200    17.5820 c5         1 OMV       0.104000
     11 C06        -13.1650   -21.0500    15.5590 c          1 OMV       0.659100
     12 C09        -12.3000   -22.6830    14.0280 cx         1 OMV      -0.070600
     13 C11        -17.3090   -20.4880    16.5620 c3         1 OMV       0.055700
     14 C18        -17.4800   -21.9530    16.9700 c3         1 OMV      -0.086400
     15 C19        -16.4540   -22.4190    18.0000 c3         1 OMV      -0.080400
     16 C23        -11.6210   -14.5510    16.7960 ca         1 OMV       0.372300
     17 C27        -10.4220   -14.3510    17.5030 ca         1 OMV      -0.287300
     18 C29        -10.1340   -12.2410    16.3490 ca         1 OMV      -0.158000
     19 C30        -11.2950   -12.4340    15.6560 ca         1 OMV      -0.112300
     20 C32         -8.0290   -13.8280    18.8570 c3         1 OMV       0.122700
     21 C33        -15.1620   -15.1100    14.6060 c3         1 OMV      -0.139400
     22 C34        -11.0560   -23.2670    14.6110 c          1 OMV       0.748100
     23 C40         -8.8080   -21.3780    17.2180 cx         1 OMV      -0.285200
     24 C41         -8.4050   -20.0510    16.6350 cx         1 OMV      -0.079900
     25 C42         -7.4450   -20.8110    17.4860 cx         1 OMV      -0.079900
     26 C43         -9.8350   -21.4630    18.3170 c3         1 OMV      -0.044100
     27 C44        -13.5230   -23.5840    13.8240 cx         1 OMV      -0.035500
     28 C45        -13.6240   -24.9800    14.2900 c2         1 OMV      -0.141200
     29 C46        -14.5370   -25.4190    15.1580 c2         1 OMV      -0.138200
     30 C47        -15.5710   -24.6130    15.8820 c3         1 OMV      -0.048200
     31 C48        -15.3890   -24.6900    17.3990 c3         1 OMV      -0.073400
     32 C49        -12.6990   -23.1640    12.6600 cx         1 OMV      -0.096400
     33 C50        -16.4420   -23.9390    18.2150 c3         1 OMV      -0.066400
     34 C51        -19.8990   -16.3630    13.9840 c3         1 OMV      -0.088400
     35 C52        -17.9090   -17.3640    12.7040 c5         1 OMV      -0.093900
     36 C53        -20.0780   -18.0900    12.0970 c5         1 OMV      -0.093900
     37 C54        -19.1040   -19.0090    11.3440 c5         1 OMV      -0.077900
     38 C55        -17.6880   -18.5690    11.7850 c5         1 OMV      -0.077900
     39 C56        -21.2690   -16.5910    14.6080 c3         1 OMV      -0.083100
     40 N05        -14.9750   -19.6610    16.3940 n          1 OMV      -0.451800
     41 N08        -12.5900   -21.3300    14.3660 ns         1 OMV      -0.541900
     42 N13        -18.3900   -20.1050    15.6840 ns         1 OMV      -0.541900
     43 N22        -12.3480   -15.6760    17.0180 nb         1 OMV      -0.756000
     44 N25        -13.2140   -13.7840    15.1650 nb         1 OMV      -0.613000
     45 N35        -10.2910   -22.3620    15.3030 ns         1 OMV      -0.640300
     46 O07        -13.2210   -21.8660    16.4570 o          1 OMV      -0.568100
     47 O12        -15.8380   -20.8630    14.7210 o          1 OMV      -0.629100
     48 O15        -19.2820   -18.7400    14.1920 os         1 OMV      -0.439900
     49 O16        -17.8070   -17.9190    15.7040 o          1 OMV      -0.600000
     50 O20        -14.2290   -16.8740    16.5190 os         1 OMV      -0.423100
     51 O31         -8.5330   -12.9130    17.9030 os         1 OMV      -0.311900
     52 O36        -10.7360   -24.4260    14.4770 o          1 OMV      -0.540100
     53 O38         -7.7530   -22.6550    15.1450 o          1 OMV      -0.586800
     54 O39         -9.0500   -23.9780    16.8200 o          1 OMV      -0.586800
     55 S37         -8.8530   -22.7400    16.0900 s6         1 OMV       1.285600
     56 H011       -13.7480   -19.1180    14.7740 h1         1 OMV       0.074700
     57 H022       -12.3670   -19.4810    17.4710 hc         1 OMV       0.076200
     58 H021       -12.0020   -18.2930    16.2180 hc         1 OMV       0.076200
     59 H031       -13.4560   -17.5050    18.3460 h1         1 OMV       0.090700
     60 H042       -15.9490   -18.2540    17.6370 h1         1 OMV       0.078200
     61 H041       -14.9080   -19.4060    18.4970 h1         1 OMV       0.078200
     62 H111       -17.3470   -19.8700    17.4610 h1         1 OMV       0.081700
     63 H182       -18.4860   -22.0730    17.3820 hc         1 OMV       0.057700
     64 H181       -17.4400   -22.5740    16.0710 hc         1 OMV       0.057700
     65 H192       -15.4490   -22.0950    17.7190 hc         1 OMV       0.049200
     66 H191       -16.6770   -21.9180    18.9460 hc         1 OMV       0.049200
     67 H271       -10.1140   -15.1150    18.2040 ha         1 OMV       0.151000
     68 H291        -9.5420   -11.3480    16.1940 ha         1 OMV       0.153000
     69 H301       -11.6380   -11.6980    14.9410 ha         1 OMV       0.154000
     70 H322        -7.1020   -13.4020    19.2330 h1         1 OMV       0.044700
     71 H323        -8.7200   -13.9650    19.6920 h1         1 OMV       0.044700
     72 H321        -7.8150   -14.8020    18.4120 h1         1 OMV       0.044700
     73 H332       -15.3640   -14.2680    13.9470 hc         1 OMV       0.060700
     74 H333       -15.0760   -16.0130    13.9980 hc         1 OMV       0.060700
     75 H331       -16.0190   -15.2590    15.2630 hc         1 OMV       0.060700
     76 H411        -8.1920   -19.9770    15.5760 hc         1 OMV       0.087950
     77 H412        -8.9080   -19.1880    17.0520 hc         1 OMV       0.087950
     78 H421        -6.5840   -21.2540    17.0050 hc         1 OMV       0.087950
     79 H422        -7.2710   -20.4840    18.5030 hc         1 OMV       0.087950
     80 H431        -9.7680   -20.5680    18.9340 hc         1 OMV       0.054367
     81 H432       -10.8520   -21.5210    17.9280 hc         1 OMV       0.054367
     82 H433        -9.6640   -22.3250    18.9590 hc         1 OMV       0.054367
     83 H441       -14.4250   -22.9980    13.9500 hc         1 OMV       0.101700
     84 H451       -12.9320   -25.6950    13.8640 ha         1 OMV       0.140000
     85 H461       -14.5310   -26.4810    15.3900 ha         1 OMV       0.118000
     86 H471       -15.5450   -23.5720    15.5630 hc         1 OMV       0.046700
     87 H472       -16.5650   -24.9970    15.6260 hc         1 OMV       0.046700
     88 H481       -15.3930   -25.7410    17.7050 hc         1 OMV       0.048200
     89 H482       -14.3990   -24.3000    17.6500 hc         1 OMV       0.048200
     90 H492       -13.1010   -22.4240    11.9790 hc         1 OMV       0.086700
     91 H491       -12.0460   -23.8950    12.1980 hc         1 OMV       0.086700
     92 H501       -17.4350   -24.3520    18.0080 hc         1 OMV       0.037200
     93 H502       -16.2490   -24.1460    19.2710 hc         1 OMV       0.037200
     94 H511       -19.2100   -15.9740    14.7360 hc         1 OMV       0.055700
     95 H512       -19.9760   -15.5880    13.2160 hc         1 OMV       0.055700
     96 H521       -17.1230   -17.2270    13.4440 hc         1 OMV       0.058700
     97 H522       -17.9560   -16.4420    12.1170 hc         1 OMV       0.058700
     98 H531       -20.3450   -17.2260    11.4850 hc         1 OMV       0.058700
     99 H532       -21.0110   -18.5860    12.3720 hc         1 OMV       0.058700
    100 H541       -19.2410   -18.9250    10.2650 hc         1 OMV       0.047200
    101 H542       -19.2800   -20.0540    11.6000 hc         1 OMV       0.047200
    102 H552       -17.1820   -19.3710    12.3250 hc         1 OMV       0.047200
    103 H551       -17.0510   -18.3130    10.9380 hc         1 OMV       0.047200
    104 H562       -21.6620   -15.6580    15.0120 hc         1 OMV       0.036033
    105 H563       -21.9910   -16.9590    13.8770 hc         1 OMV       0.036033
    106 H561       -21.2310   -17.3080    15.4280 hc         1 OMV       0.036033
    107 H081       -12.6220   -20.6440    13.6270 hn         1 OMV       0.322500
    108 H131       -18.7760   -20.8290    15.0950 hn         1 OMV       0.326500
    109 H351       -10.4940   -21.3750    15.1960 hn         1 OMV       0.336500
    110 C14        -18.4390   -18.8320    15.2160 c          1 OMV       0.757100
@<TRIPOS>BOND
     1     1    13 1   
     2     1    40 1   
     3     1    47 2   
     4     2    34 1   
     5     2    35 1   
     6     2    36 1   
     7     2    48 1   
     8     3     5 ar  
     9     3    43 ar  
    10     3    50 1   
    11     4    16 ar  
    12     4    19 ar  
    13     4    44 ar  
    14     5    21 1   
    15     5    44 ar  
    16     6    17 ar  
    17     6    18 ar  
    18     6    51 1   
    19     7     8 1   
    20     7    11 1   
    21     7    40 1   
    22     7    56 1   
    23     8     9 1   
    24     8    57 1   
    25     8    58 1   
    26     9    10 1   
    27     9    50 1   
    28     9    59 1   
    29    10    40 1   
    30    10    60 1   
    31    10    61 1   
    32    11    41 1   
    33    11    46 2   
    34    12    22 1   
    35    12    27 1   
    36    12    32 1   
    37    12    41 1   
    38    13    14 1   
    39    13    42 1   
    40    13    62 1   
    41    14    15 1   
    42    14    63 1   
    43    14    64 1   
    44    15    33 1   
    45    15    65 1   
    46    15    66 1   
    47    16    17 ar  
    48    16    43 ar  
    49    17    67 1   
    50    18    19 ar  
    51    18    68 1   
    52    19    69 1   
    53    20    51 1   
    54    20    70 1   
    55    20    71 1   
    56    20    72 1   
    57    21    73 1   
    58    21    74 1   
    59    21    75 1   
    60    22    45 1   
    61    22    52 2   
    62    23    24 1   
    63    23    25 1   
    64    23    26 1   
    65    23    55 1   
    66    24    25 1   
    67    24    76 1   
    68    24    77 1   
    69    25    78 1   
    70    25    79 1   
    71    26    80 1   
    72    26    81 1   
    73    26    82 1   
    74    27    28 1   
    75    27    32 1   
    76    27    83 1   
    77    28    29 2   
    78    28    84 1   
    79    29    30 1   
    80    29    85 1   
    81    30    31 1   
    82    30    86 1   
    83    30    87 1   
    84    31    33 1   
    85    31    88 1   
    86    31    89 1   
    87    32    90 1   
    88    32    91 1   
    89    33    92 1   
    90    33    93 1   
    91    34    39 1   
    92    34    94 1   
    93    34    95 1   
    94    35    38 1   
    95    35    96 1   
    96    35    97 1   
    97    36    37 1   
    98    36    98 1   
    99    36    99 1   
   100    37    38 1   
   101    37   100 1   
   102    37   101 1   
   103    38   102 1   
   104    38   103 1   
   105    39   104 1   
   106    39   105 1   
   107    39   106 1   
   108    41   107 1   
   109    42   108 1   
   110    42   110 1   
   111    45    55 1   
   112    45   109 1   
   113    48   110 1   
   114    49   110 2   
   115    53    55 2   
   116    54    55 2   
@<TRIPOS>SUBSTRUCTURE
     1 OMV         1 TEMP              0 ****  ****    0 ROOT
