@<TRIPOS>MOLECULE
OMV
  110   116     1     0     0
SMALL
No Charge or Current Charge


@<TRIPOS>ATOM
      1 C10        -15.7430   -19.7060    15.2610 c          1 OMV       0.591100
      2 C17        -21.4090   -18.3160    13.7720 c5         1 OMV       0.215000
      3 C21        -12.2240   -15.8170    15.7170 ca         1 OMV       0.554300
      4 C24         -9.9120   -14.4140    15.3500 ca         1 OMV       0.166000
      5 C26        -11.6820   -15.5670    14.4140 ca         1 OMV       0.320300
      6 C28         -8.5920   -13.4240    17.6550 ca         1 OMV       0.165100
      7 C01        -13.2670   -19.4150    15.6860 c5         1 OMV       0.030700
      8 C02        -12.5260   -18.5830    16.7810 c5         1 OMV      -0.111400
      9 C03        -13.4760   -17.3690    16.9950 c5         1 OMV       0.164300
     10 C04        -14.8730   -18.0530    16.9940 c5         1 OMV       0.104000
     11 C06        -12.8770   -20.9170    15.8410 c          1 OMV       0.592100
     12 C09        -12.0890   -22.8270    14.4570 cx         1 OMV      -0.070600
     13 C11        -17.1820   -19.7410    15.8610 c3         1 OMV       0.055700
     14 C18        -17.5100   -21.1390    16.4520 c3         1 OMV      -0.086400
     15 C19        -16.6160   -21.5780    17.6410 c3         1 OMV      -0.080400
     16 C23        -10.4620   -14.6440    16.6570 ca         1 OMV       0.307000
     17 C27         -9.7950   -14.1450    17.7880 ca         1 OMV      -0.204000
     18 C29         -8.0560   -13.2020    16.3800 ca         1 OMV      -0.140000
     19 C30         -8.7100   -13.6920    15.2380 ca         1 OMV      -0.029000
     20 C32         -8.3640   -13.0910    20.0920 c3         1 OMV       0.145900
     21 C33        -12.3620   -16.0780    13.1510 c3         1 OMV      -0.139400
     22 C34        -11.1280   -23.5340    15.4340 c          1 OMV       0.681100
     23 C40         -8.0900   -21.4290    17.1280 cx         1 OMV      -0.396000
     24 C41         -7.1200   -20.8600    16.1070 cx         1 OMV      -0.079900
     25 C42         -6.6100   -21.3310    17.4520 cx         1 OMV      -0.079900
     26 C43         -9.0840   -20.4960    17.8310 c3         1 OMV      -0.044100
     27 C44        -13.2970   -23.5310    13.8520 cx         1 OMV      -0.035500
     28 C45        -13.7480   -24.8670    14.3420 c2         1 OMV      -0.191200
     29 C46        -14.7860   -25.0860    15.1720 c2         1 OMV      -0.188200
     30 C47        -15.7220   -24.0440    15.7690 c3         1 OMV      -0.048200
     31 C48        -15.6840   -24.0160    17.3140 c3         1 OMV      -0.073400
     32 C49        -12.0440   -23.3430    13.0320 cx         1 OMV      -0.096400
     33 C50        -16.7240   -23.0840    17.9990 c3         1 OMV      -0.066400
     34 C51        -22.3900   -19.3170    14.4560 c3         1 OMV      -0.088400
     35 C52        -21.5020   -16.8340    14.2580 c5         1 OMV      -0.093900
     36 C53        -21.7270   -18.0780    12.2660 c5         1 OMV      -0.093900
     37 C54        -20.8600   -16.8370    11.8810 c5         1 OMV      -0.077900
     38 C55        -20.6330   -16.0670    13.2210 c5         1 OMV      -0.077900
     39 C56        -22.2670   -20.7860    13.9910 c3         1 OMV      -0.083100
     40 N05        -14.6910   -19.1650    16.0310 n          1 OMV      -0.384800
     41 N08        -12.3240   -21.4070    14.6730 ns         1 OMV      -0.474900
     42 N13        -18.1560   -19.4050    14.8050 ns         1 OMV      -0.474900
     43 N22        -11.6170   -15.3350    16.8380 nb         1 OMV      -0.756000
     44 N25        -10.5250   -14.8740    14.2270 nb         1 OMV      -0.613000
     45 N35        -10.0470   -22.7770    15.7340 ns         1 OMV      -0.573300
     46 O07        -13.0130   -21.6030    16.8450 o          1 OMV      -0.568100
     47 O12        -15.5020   -20.2100    14.1680 o          1 OMV      -0.629100
     48 O15        -20.0260   -18.7910    13.8040 os         1 OMV      -0.463100
     49 O16        -19.8900   -18.7100    16.1250 o          1 OMV      -0.551000
     50 O20        -13.4280   -16.5050    15.8160 os         1 OMV      -0.446300
     51 O31         -7.9040   -12.9180    18.7390 os         1 OMV      -0.335100
     52 O36        -11.2880   -24.6610    15.8790 o          1 OMV      -0.540100
     53 O38         -7.8440   -23.9450    16.1240 o          1 OMV      -0.516000
     54 O39         -9.4470   -23.5980    18.0670 o          1 OMV      -0.516000
     55 S37         -8.8390   -23.1210    16.8200 s6         1 OMV       1.254800
     56 H011       -13.0400   -19.0550    14.6740 h1         1 OMV       0.074700
     57 H022       -12.4320   -19.1420    17.7200 hc         1 OMV       0.076200
     58 H021       -11.5090   -18.3050    16.4830 hc         1 OMV       0.076200
     59 H031       -13.2980   -16.8030    17.9200 h1         1 OMV       0.090700
     60 H042       -15.6600   -17.3520    16.6850 h1         1 OMV       0.078200
     61 H041       -15.1250   -18.4400    17.9910 h1         1 OMV       0.078200
     62 H111       -17.2610   -18.9910    16.6560 h1         1 OMV       0.081700
     63 H182       -18.5540   -21.1510    16.7880 hc         1 OMV       0.057700
     64 H181       -17.4490   -21.8750    15.6430 hc         1 OMV       0.057700
     65 H192       -15.5660   -21.3380    17.4480 hc         1 OMV       0.049200
     66 H191       -16.9040   -20.9840    18.5180 hc         1 OMV       0.049200
     67 H271       -10.2310   -14.3310    18.7640 ha         1 OMV       0.133000
     68 H291        -7.1280   -12.6450    16.2750 ha         1 OMV       0.135000
     69 H301        -8.2840   -13.5110    14.2550 ha         1 OMV       0.136000
     70 H322        -7.6710   -12.6120    20.7940 h1         1 OMV       0.044700
     71 H323        -9.3540   -12.6360    20.2290 h1         1 OMV       0.044700
     72 H321        -8.4270   -14.1560    20.3490 h1         1 OMV       0.044700
     73 H332       -11.8650   -15.7160    12.2430 hc         1 OMV       0.060700
     74 H333       -12.3530   -17.1740    13.1220 hc         1 OMV       0.060700
     75 H331       -13.4070   -15.7500    13.1110 hc         1 OMV       0.060700
     76 H411        -6.8660   -21.4610    15.2350 hc         1 OMV       0.087950
     77 H412        -7.1360   -19.7880    15.9220 hc         1 OMV       0.087950
     78 H421        -6.0190   -22.2440    17.4750 hc         1 OMV       0.087950
     79 H422        -6.2870   -20.5720    18.1620 hc         1 OMV       0.087950
     80 H431        -8.6520   -19.5020    17.9990 hc         1 OMV       0.054367
     81 H432        -9.9960   -20.3580    17.2380 hc         1 OMV       0.054367
     82 H433        -9.3780   -20.8920    18.8110 hc         1 OMV       0.054367
     83 H441       -14.1280   -22.8960    13.5540 hc         1 OMV       0.101700
     84 H451       -13.1630   -25.7160    13.9830 ha         1 OMV       0.190000
     85 H461       -15.0260   -26.1100    15.4680 ha         1 OMV       0.168000
     86 H471       -15.4730   -23.0440    15.3980 hc         1 OMV       0.046700
     87 H472       -16.7480   -24.2520    15.4410 hc         1 OMV       0.046700
     88 H481       -15.8460   -25.0360    17.6850 hc         1 OMV       0.048200
     89 H482       -14.6770   -23.7280    17.6370 hc         1 OMV       0.048200
     90 H492       -12.0720   -22.6160    12.2240 hc         1 OMV       0.086700
     91 H491       -11.4380   -24.2220    12.8250 hc         1 OMV       0.086700
     92 H501       -17.7390   -23.4440    17.7860 hc         1 OMV       0.037200
     93 H502       -16.5900   -23.1850    19.0830 hc         1 OMV       0.037200
     94 H511       -22.2790   -19.2840    15.5450 hc         1 OMV       0.055700
     95 H512       -23.4190   -18.9900    14.2670 hc         1 OMV       0.055700
     96 H521       -21.1540   -16.6800    15.2840 hc         1 OMV       0.058700
     97 H522       -22.5400   -16.4810    14.2330 hc         1 OMV       0.058700
     98 H531       -22.7930   -17.8680    12.1180 hc         1 OMV       0.058700
     99 H532       -21.4900   -18.9500    11.6460 hc         1 OMV       0.058700
    100 H541       -21.3640   -16.2160    11.1310 hc         1 OMV       0.047200
    101 H542       -19.9020   -17.1430    11.4450 hc         1 OMV       0.047200
    102 H552       -19.5740   -16.0850    13.5050 hc         1 OMV       0.047200
    103 H551       -20.9220   -15.0130    13.1470 hc         1 OMV       0.047200
    104 H562       -23.0050   -21.4110    14.5080 hc         1 OMV       0.036033
    105 H563       -22.4440   -20.8730    12.9130 hc         1 OMV       0.036033
    106 H561       -21.2710   -21.1860    14.2120 hc         1 OMV       0.036033
    107 H081       -12.2630   -20.7640    13.8910 hn         1 OMV       0.322500
    108 H131       -17.8980   -19.5530    13.8370 hn         1 OMV       0.326500
    109 H351        -9.9560   -21.8630    15.3270 hn         1 OMV       0.336500
    110 C14        -19.4210   -18.9410    15.0220 c          1 OMV       0.641100
@<TRIPOS>BOND
     1     1    13 1   
     2     1    40 1   
     3     1    47 2   
     4     2    34 1   
     5     2    35 1   
     6     2    36 1   
     7     2    48 1   
     8     3     5 ar  
     9     3    43 ar  
    10     3    50 1   
    11     4    16 ar  
    12     4    19 ar  
    13     4    44 ar  
    14     5    21 1   
    15     5    44 ar  
    16     6    17 ar  
    17     6    18 ar  
    18     6    51 1   
    19     7     8 1   
    20     7    11 1   
    21     7    40 1   
    22     7    56 1   
    23     8     9 1   
    24     8    57 1   
    25     8    58 1   
    26     9    10 1   
    27     9    50 1   
    28     9    59 1   
    29    10    40 1   
    30    10    60 1   
    31    10    61 1   
    32    11    41 1   
    33    11    46 2   
    34    12    22 1   
    35    12    27 1   
    36    12    32 1   
    37    12    41 1   
    38    13    14 1   
    39    13    42 1   
    40    13    62 1   
    41    14    15 1   
    42    14    63 1   
    43    14    64 1   
    44    15    33 1   
    45    15    65 1   
    46    15    66 1   
    47    16    17 ar  
    48    16    43 ar  
    49    17    67 1   
    50    18    19 ar  
    51    18    68 1   
    52    19    69 1   
    53    20    51 1   
    54    20    70 1   
    55    20    71 1   
    56    20    72 1   
    57    21    73 1   
    58    21    74 1   
    59    21    75 1   
    60    22    45 1   
    61    22    52 2   
    62    23    24 1   
    63    23    25 1   
    64    23    26 1   
    65    23    55 1   
    66    24    25 1   
    67    24    76 1   
    68    24    77 1   
    69    25    78 1   
    70    25    79 1   
    71    26    80 1   
    72    26    81 1   
    73    26    82 1   
    74    27    28 1   
    75    27    32 1   
    76    27    83 1   
    77    28    29 2   
    78    28    84 1   
    79    29    30 1   
    80    29    85 1   
    81    30    31 1   
    82    30    86 1   
    83    30    87 1   
    84    31    33 1   
    85    31    88 1   
    86    31    89 1   
    87    32    90 1   
    88    32    91 1   
    89    33    92 1   
    90    33    93 1   
    91    34    39 1   
    92    34    94 1   
    93    34    95 1   
    94    35    38 1   
    95    35    96 1   
    96    35    97 1   
    97    36    37 1   
    98    36    98 1   
    99    36    99 1   
   100    37    38 1   
   101    37   100 1   
   102    37   101 1   
   103    38   102 1   
   104    38   103 1   
   105    39   104 1   
   106    39   105 1   
   107    39   106 1   
   108    41   107 1   
   109    42   108 1   
   110    42   110 1   
   111    45    55 1   
   112    45   109 1   
   113    48   110 1   
   114    49   110 2   
   115    53    55 2   
   116    54    55 2   
@<TRIPOS>SUBSTRUCTURE
     1 OMV         1 TEMP              0 ****  ****    0 ROOT
