@<TRIPOS>MOLECULE
OMW
   33    34     1     0     0
SMALL
bcc


@<TRIPOS>ATOM
      1 N           15.0670    14.8380    18.3480 nt         1 OMW      -0.662000
      2 C           15.2990    14.7660    19.6610 c          1 OMW       0.703700
      3 O           14.4920    15.0530    20.5260 o          1 OMW      -0.573100
      4 C1          16.6750    14.2750    20.0220 ca         1 OMW      -0.212600
      5 C10         20.4600     7.0120    17.0340 c3         1 OMW       0.722200
      6 C11         19.5660     6.4570    19.3160 ca         1 OMW      -0.063000
      7 C12         19.1940     6.8560    20.5910 ca         1 OMW      -0.138000
      8 C13         19.2640     8.1900    20.9550 ca         1 OMW      -0.070000
      9 C14         17.0280    12.9520    19.8780 ca         1 OMW       0.155900
     10 C2          17.6110    15.1320    20.5850 ca         1 OMW       0.161900
     11 C3          18.8520    14.6950    20.9790 ca         1 OMW      -0.153000
     12 C4          19.1820    13.3520    20.8200 ca         1 OMW      -0.160000
     13 C5          18.2770    12.4580    20.2640 ca         1 OMW       0.085100
     14 C6          19.7450    10.5960    20.4190 c3         1 OMW       0.188700
     15 C7          19.7060     9.1450    20.0440 ca         1 OMW      -0.105300
     16 C8          20.0860     8.7450    18.7700 ca         1 OMW      -0.053000
     17 C9          20.0180     7.4040    18.4070 ca         1 OMW      -0.202300
     18 F           17.2770    16.4220    20.7310 f          1 OMW      -0.125900
     19 F1          16.1340    12.0980    19.3680 f          1 OMW      -0.117900
     20 F2          19.8720     7.7570    16.0890 f          1 OMW      -0.233967
     21 F3          21.7820     7.1750    16.8730 f          1 OMW      -0.233967
     22 F4          20.1850     5.7350    16.7560 f          1 OMW      -0.233967
     23 O1          18.4800    11.1450    20.0680 os         1 OMW      -0.300900
     24 H1          14.1700    15.1450    18.0060 hn         1 OMW       0.320500
     25 H2          15.7750    14.6180    17.6680 hn         1 OMW       0.320500
     26 H3          19.5060     5.4100    19.0500 ha         1 OMW       0.152000
     27 H4          18.8480     6.1180    21.3020 ha         1 OMW       0.144000
     28 H5          18.9730     8.4950    21.9520 ha         1 OMW       0.141000
     29 H6          19.5650    15.3830    21.4110 ha         1 OMW       0.158000
     30 H7          20.1600    13.0230    21.1440 ha         1 OMW       0.144000
     31 H8          19.9250    10.7060    21.4940 h1         1 OMW       0.045700
     32 H9          20.5500    11.1150    19.8890 h1         1 OMW       0.045700
     33 H10         20.4360     9.4930    18.0680 ha         1 OMW       0.148000
@<TRIPOS>BOND
     1     1     2 1   
     2     1    24 1   
     3     1    25 1   
     4     2     3 2   
     5     2     4 1   
     6     4     9 ar  
     7     4    10 ar  
     8     5    17 1   
     9     5    20 1   
    10     5    21 1   
    11     5    22 1   
    12     6     7 ar  
    13     6    17 ar  
    14     6    26 1   
    15     7     8 ar  
    16     7    27 1   
    17     8    15 ar  
    18     8    28 1   
    19     9    13 ar  
    20     9    19 1   
    21    10    11 ar  
    22    10    18 1   
    23    11    12 ar  
    24    11    29 1   
    25    12    13 ar  
    26    12    30 1   
    27    13    23 1   
    28    14    15 1   
    29    14    23 1   
    30    14    31 1   
    31    14    32 1   
    32    15    16 ar  
    33    16    17 ar  
    34    16    33 1   
@<TRIPOS>SUBSTRUCTURE
     1 OMW         1 TEMP              0 ****  ****    0 ROOT
