@<TRIPOS>MOLECULE
OMW
   33    34     1     0     0
SMALL
No Charge or Current Charge


@<TRIPOS>ATOM
      1 N           14.7210    14.4100    18.5080 nt         1 OMW      -0.595000
      2 C           15.4270    15.0710    19.4480 c          1 OMW       0.636700
      3 O           14.9700    16.1240    19.8600 o          1 OMW      -0.573100
      4 C1          16.7210    14.4680    19.9590 ca         1 OMW      -0.212600
      5 C10         20.5350     7.0060    16.9370 c3         1 OMW       0.358300
      6 C11         19.6270     6.4170    19.2570 ca         1 OMW      -0.045000
      7 C12         19.2120     6.7860    20.5480 ca         1 OMW      -0.120000
      8 C13         19.2430     8.1330    20.9440 ca         1 OMW      -0.052000
      9 C14         17.0570    13.1010    19.7580 ca         1 OMW       0.191000
     10 C2          17.6470    15.2710    20.6700 ca         1 OMW       0.197000
     11 C3          18.8510    14.7370    21.1530 ca         1 OMW      -0.135000
     12 C4          19.1700    13.3880    20.9460 ca         1 OMW      -0.142000
     13 C5          18.2700    12.5600    20.2450 ca         1 OMW       0.085100
     14 C6          19.7380    10.5810    20.4760 c3         1 OMW       0.211900
     15 C7          19.6960     9.1200    20.0500 ca         1 OMW      -0.105300
     16 C8          20.1100     8.7490    18.7550 ca         1 OMW      -0.035000
     17 C9          20.0730     7.3980    18.3450 ca         1 OMW      -0.202300
     18 F           17.4200    16.5860    20.8870 f          1 OMW      -0.161000
     19 F1          16.2120    12.2610    19.1140 f          1 OMW      -0.153000
     20 F2          20.2480     7.9590    16.0200 f          1 OMW      -0.112667
     21 F3          21.8720     6.8090    16.8970 f          1 OMW      -0.112667
     22 F4          19.9540     5.8650    16.5000 f          1 OMW      -0.112667
     23 O1          18.5340    11.2200    20.0190 os         1 OMW      -0.324100
     24 H1          13.8550    14.8050    18.1740 hn         1 OMW       0.320500
     25 H2          15.0570    13.5270    18.1540 hn         1 OMW       0.320500
     26 H3          19.6010     5.3670    18.9730 ha         1 OMW       0.134000
     27 H4          18.8660     6.0250    21.2440 ha         1 OMW       0.126000
     28 H5          18.9170     8.4070    21.9450 ha         1 OMW       0.123000
     29 H6          19.5440    15.3810    21.6900 ha         1 OMW       0.140000
     30 H7          20.1120    13.0080    21.3340 ha         1 OMW       0.126000
     31 H8          19.8200    10.6440    21.5690 h1         1 OMW       0.045700
     32 H9          20.6220    11.0620    20.0380 h1         1 OMW       0.045700
     33 H10         20.4610     9.5180    18.0690 ha         1 OMW       0.130000
@<TRIPOS>BOND
     1     1     2 1   
     2     1    24 1   
     3     1    25 1   
     4     2     3 2   
     5     2     4 1   
     6     4     9 ar  
     7     4    10 ar  
     8     5    17 1   
     9     5    20 1   
    10     5    21 1   
    11     5    22 1   
    12     6     7 ar  
    13     6    17 ar  
    14     6    26 1   
    15     7     8 ar  
    16     7    27 1   
    17     8    15 ar  
    18     8    28 1   
    19     9    13 ar  
    20     9    19 1   
    21    10    11 ar  
    22    10    18 1   
    23    11    12 ar  
    24    11    29 1   
    25    12    13 ar  
    26    12    30 1   
    27    13    23 1   
    28    14    15 1   
    29    14    23 1   
    30    14    31 1   
    31    14    32 1   
    32    15    16 ar  
    33    16    17 ar  
    34    16    33 1   
@<TRIPOS>SUBSTRUCTURE
     1 OMW         1 TEMP              0 ****  ****    0 ROOT
