@<TRIPOS>MOLECULE
OMX
   24    24     1     0     0
SMALL
bcc


@<TRIPOS>ATOM
      1 N           22.7270     5.2790    -5.1600 n8         1 OMX      -0.891800
      2 CA          23.8260     6.2140    -5.0110 c3         1 OMX       0.030500
      3 C           23.8940     6.8140    -3.5770 c          1 OMX       0.937600
      4 O           23.1010     6.3580    -2.7300 o          1 OMX      -0.831300
      5 CB          23.7460     7.3390    -6.0500 c3         1 OMX       0.214400
      6 OC          22.5810     8.0870    -5.7890 oh         1 OMX      -0.553800
      7 CG          23.7780     6.7930    -7.4590 ca         1 OMX      -0.123300
      8 CD1         22.6190     6.5420    -8.1880 ca         1 OMX      -0.083500
      9 CD2         24.9960     6.4920    -8.0590 ca         1 OMX      -0.083500
     10 CE1         22.6710     6.0150    -9.4700 ca         1 OMX      -0.204000
     11 CE2         25.0670     5.9570    -9.3370 ca         1 OMX      -0.204000
     12 CZ          23.8980     5.7170   -10.0550 ca         1 OMX       0.107100
     13 OH          23.8960     5.2090   -11.3070 oh         1 OMX      -0.511100
     14 OXT         24.7670     7.6850    -3.3970 o          1 OMX      -0.831300
     15 HN1         23.0080     4.4840    -5.7160 hn         1 OMX       0.334300
     16 HN2         22.4850     4.9380    -4.2390 hn         1 OMX       0.334300
     17 HA          24.8020     5.7300    -5.1730 h1         1 OMX       0.006700
     18 HB          24.6410     7.9590    -5.9130 h1         1 OMX       0.048700
     19 HC          22.5760     8.8500    -6.3750 ho         1 OMX       0.366000
     20 HD1         21.6520     6.7660    -7.7570 ha         1 OMX       0.142000
     21 HD2         25.9190     6.6820    -7.5230 ha         1 OMX       0.142000
     22 HE1         21.7560     5.8330   -10.0220 ha         1 OMX       0.122000
     23 HE2         26.0340     5.7370    -9.7770 ha         1 OMX       0.122000
     24 HH          24.7980     5.0510   -11.6070 ho         1 OMX       0.412000
@<TRIPOS>BOND
     1     1     2 1   
     2     1    15 1   
     3     1    16 1   
     4     2     3 1   
     5     2     5 1   
     6     2    17 1   
     7     3     4 1   
     8     3    14 1   
     9     5     6 1   
    10     5     7 1   
    11     5    18 1   
    12     6    19 1   
    13     7     8 ar  
    14     7     9 ar  
    15     8    10 ar  
    16     8    20 1   
    17     9    11 ar  
    18     9    21 1   
    19    10    12 ar  
    20    10    22 1   
    21    11    12 ar  
    22    11    23 1   
    23    12    13 1   
    24    13    24 1   
@<TRIPOS>SUBSTRUCTURE
     1 OMX         1 TEMP              0 ****  ****    0 ROOT
