@<TRIPOS>MOLECULE
OMX
   24    24     1     0     0
SMALL
No Charge or Current Charge


@<TRIPOS>ATOM
      1 N           22.4720     5.3100    -5.0110 n8         1 OMX      -1.002200
      2 CA          23.6860     6.2290    -4.9150 c3         1 OMX       0.030500
      3 C           24.0150     6.8820    -3.5080 c          1 OMX       0.727000
      4 O           23.1530     6.9030    -2.6360 o          1 OMX      -0.726000
      5 CB          23.7360     7.3390    -6.0190 c3         1 OMX       0.237600
      6 OC          22.6340     8.2520    -5.8910 oh         1 OMX      -0.616000
      7 CG          23.7830     6.7640    -7.4400 ca         1 OMX      -0.123300
      8 CD1         22.6070     6.3750    -8.1200 ca         1 OMX      -0.065500
      9 CD2         25.0280     6.6130    -8.0870 ca         1 OMX      -0.065500
     10 CE1         22.6800     5.8500    -9.4220 ca         1 OMX      -0.186000
     11 CE2         25.0960     6.0870    -9.3890 ca         1 OMX      -0.186000
     12 CZ          23.9220     5.7060   -10.0550 ca         1 OMX       0.107100
     13 OH          23.9840     5.1970   -11.3160 oh         1 OMX      -0.550100
     14 OXT         25.1690     7.2390    -3.3000 o          1 OMX      -0.726000
     15 HN1         22.4610     4.8680    -5.9370 hn         1 OMX       0.389500
     16 HN2         22.5900     4.5260    -4.3580 hn         1 OMX       0.389500
     17 HA          24.5410     5.5700    -5.1200 h1         1 OMX       0.006700
     18 HB          24.6690     7.9000    -5.8690 h1         1 OMX       0.048700
     19 HC          22.6720     8.8390    -6.6740 ho         1 OMX       0.405000
     20 HD1         21.6360     6.4790    -7.6400 ha         1 OMX       0.124000
     21 HD2         25.9460     6.9030    -7.5790 ha         1 OMX       0.124000
     22 HE1         21.7700     5.5540    -9.9380 ha         1 OMX       0.104000
     23 HE2         26.0640     5.9780    -9.8730 ha         1 OMX       0.104000
     24 HH          24.9250     5.1710   -11.5930 ho         1 OMX       0.451000
@<TRIPOS>BOND
     1     1     2 1   
     2     1    15 1   
     3     1    16 1   
     4     2     3 1   
     5     2     5 1   
     6     2    17 1   
     7     3     4 1   
     8     3    14 1   
     9     5     6 1   
    10     5     7 1   
    11     5    18 1   
    12     6    19 1   
    13     7     8 ar  
    14     7     9 ar  
    15     8    10 ar  
    16     8    20 1   
    17     9    11 ar  
    18     9    21 1   
    19    10    12 ar  
    20    10    22 1   
    21    11    12 ar  
    22    11    23 1   
    23    12    13 1   
    24    13    24 1   
@<TRIPOS>SUBSTRUCTURE
     1 OMX         1 TEMP              0 ****  ****    0 ROOT
