@<TRIPOS>MOLECULE
OMY
   24    24     1     0     0
SMALL
abcg2


@<TRIPOS>ATOM
      1 N           12.6780    29.4970    45.0540 n8         1 OMY      -1.041200
      2 CA          11.3730    29.0790    44.5760 c3         1 OMY      -0.017500
      3 OCZ         13.8960    23.3110    43.6480 oh         1 OMY      -0.544100
      4 CE2         13.5900    25.0840    45.1580 ca         1 OMY      -0.154000
      5 CE1         12.0130    24.8050    43.3940 ca         1 OMY       0.023000
      6 CZ          13.1710    24.3720    44.0380 ca         1 OMY       0.122100
      7 CG          11.7250    26.6160    44.9620 ca         1 OMY      -0.101300
      8 CD2         12.8780    26.1830    45.6110 ca         1 OMY      -0.060000
      9 CD1         11.3030    25.9050    43.8450 ca         1 OMY      -0.067000
     10 CB          10.9540    27.8440    45.3990 c3         1 OMY       0.227600
     11 C           10.3330    30.2270    44.7170 c          1 OMY       0.725000
     12 ODE         11.1470    28.1360    46.7570 oh         1 OMY      -0.669000
     13 OXT          9.1420    29.9050    44.5510 o          1 OMY      -0.719500
     14 HN1         13.4270    29.0790    44.5200 hn         1 OMY       0.404000
     15 HN2         12.7440    30.5030    44.9680 hn         1 OMY       0.404000
     16 HA          11.3790    28.8020    43.5120 h1         1 OMY       0.019700
     17 HCZ         13.5120    22.8940    42.8650 ho         1 OMY       0.467000
     18 HE2         14.4850    24.7620    45.6760 ha         1 OMY       0.116000
     19 HD2         13.2310    26.7000    46.4930 ha         1 OMY       0.128000
     20 HD1         10.4050    26.2060    43.3170 ha         1 OMY       0.136000
     21 HB           9.8890    27.6610    45.2290 h1         1 OMY       0.094700
     22 HDE         11.9300    28.7180    46.7500 ho         1 OMY       0.469000
     23 CL          11.4520    23.9290    42.0010 cl         1 OMY      -0.243000
     24 O           10.7800    31.3680    44.9430 o          1 OMY      -0.719500
@<TRIPOS>BOND
     1     1     2 1   
     2     1    14 1   
     3     1    15 1   
     4     2    10 1   
     5     2    11 1   
     6     2    16 1   
     7     3     6 1   
     8     3    17 1   
     9     4     6 ar  
    10     4     8 ar  
    11     4    18 1   
    12     5     6 ar  
    13     5     9 ar  
    14     5    23 1   
    15     7     8 ar  
    16     7     9 ar  
    17     7    10 1   
    18     8    19 1   
    19     9    20 1   
    20    10    12 1   
    21    10    21 1   
    22    11    13 1   
    23    11    24 1   
    24    12    22 1   
@<TRIPOS>SUBSTRUCTURE
     1 OMY         1 TEMP              0 ****  ****    0 ROOT
