@<TRIPOS>MOLECULE
OMY
   24    24     1     0     0
SMALL
No Charge or Current Charge


@<TRIPOS>ATOM
      1 N           12.1200    30.2580    46.0780 n8         1 OMY      -1.041200
      2 CA          11.9090    29.1910    44.9990 c3         1 OMY      -0.017500
      3 OCZ         13.2840    23.1080    43.1380 oh         1 OMY      -0.544100
      4 CE2         13.7010    25.0980    44.4000 ca         1 OMY      -0.154000
      5 CE1         11.4420    24.5710    43.6660 ca         1 OMY       0.023000
      6 CZ          12.8120    24.2460    43.7280 ca         1 OMY       0.122100
      7 CG          11.8560    26.6060    44.9530 ca         1 OMY      -0.101300
      8 CD2         13.2270    26.2730    45.0110 ca         1 OMY      -0.060000
      9 CD1         10.9680    25.7450    44.2770 ca         1 OMY      -0.067000
     10 CB          11.3280    27.8840    45.6090 c3         1 OMY       0.227600
     11 C           11.0530    29.6050    43.7400 c          1 OMY       0.725000
     12 ODE         11.7050    27.9380    46.9790 oh         1 OMY      -0.669000
     13 OXT         11.5760    29.5430    42.6360 o          1 OMY      -0.719500
     14 HN1         12.7040    31.0140    45.6900 hn         1 OMY       0.404000
     15 HN2         11.2220    30.7430    46.2350 hn         1 OMY       0.404000
     16 HA          12.9160    28.9560    44.6280 h1         1 OMY       0.019700
     17 HCZ         12.5200    22.6500    42.7240 ho         1 OMY       0.467000
     18 HE2         14.7580    24.8500    44.4500 ha         1 OMY       0.116000
     19 HD2         13.9260    26.9240    45.5330 ha         1 OMY       0.128000
     20 HD1          9.9080    25.9840    44.2210 ha         1 OMY       0.136000
     21 HB          10.2310    27.9130    45.5290 h1         1 OMY       0.094700
     22 HDE         12.0180    28.8880    47.0000 ho         1 OMY       0.469000
     23 Cl          10.3080    23.5120    42.8260 cl         1 OMY      -0.243000
     24 O            9.9440    30.0870    43.9320 o          1 OMY      -0.719500
@<TRIPOS>BOND
     1     1     2 1   
     2     1    14 1   
     3     1    15 1   
     4     2    10 1   
     5     2    11 1   
     6     2    16 1   
     7     3     6 1   
     8     3    17 1   
     9     4     6 ar  
    10     4     8 ar  
    11     4    18 1   
    12     5     6 ar  
    13     5     9 ar  
    14     5    23 1   
    15     7     8 ar  
    16     7     9 ar  
    17     7    10 1   
    18     8    19 1   
    19     9    20 1   
    20    10    12 1   
    21    10    21 1   
    22    11    13 1   
    23    11    24 1   
    24    12    22 1   
@<TRIPOS>SUBSTRUCTURE
     1 OMY         1 TEMP              0 ****  ****    0 ROOT
