@<TRIPOS>MOLECULE
OMZ
   24    24     1     0     0
SMALL
bcc


@<TRIPOS>ATOM
      1 N           17.0950    25.7790    26.3060 n8         1 OMZ      -0.879800
      2 CA          16.1510    24.7480    25.9320 c3         1 OMZ       0.035500
      3 C           14.7980    24.9100    26.6660 c          1 OMZ       0.928600
      4 O           14.0140    23.9430    26.5660 o          1 OMZ      -0.829300
      5 OXT         14.5950    25.9790    27.2690 o          1 OMZ      -0.829300
      6 CB          15.8960    24.6290    24.4140 c3         1 OMZ       0.155400
      7 OC          17.1340    24.3040    23.8170 oh         1 OMZ      -0.611800
      8 CG          15.3070    25.8930    23.8320 ca         1 OMZ      -0.120300
      9 CD1         13.9280    26.0640    23.7980 ca         1 OMZ      -0.041000
     10 CD2         16.1070    26.9240    23.3450 ca         1 OMZ      -0.093000
     11 CE1         13.3740    27.2300    23.2980 ca         1 OMZ      -0.062600
     12 CL          11.6460    27.4130    23.2630 cl         1 OMZ      -0.142400
     13 CE2         15.5510    28.0880    22.8420 ca         1 OMZ      -0.174000
     14 CZ          14.1710    28.2650    22.8090 ca         1 OMZ       0.133100
     15 OH          13.6850    29.4110    22.3060 oh         1 OMZ      -0.506100
     16 H           17.8770    25.7980    25.6630 hn         1 OMZ       0.331300
     17 H2          16.6430    26.6830    26.2610 hn         1 OMZ       0.331300
     18 HA          16.5670    23.7780    26.2330 h1         1 OMZ       0.058700
     19 HB          15.1750    23.8150    24.2710 h1         1 OMZ       0.063700
     20 HC          17.0030    24.2270    22.8660 ho         1 OMZ       0.380000
     21 HD1         13.2770    25.2840    24.1700 ha         1 OMZ       0.177000
     22 HD2         17.1830    26.8210    23.3430 ha         1 OMZ       0.134000
     23 HE2         16.1870    28.8790    22.4630 ha         1 OMZ       0.132000
     24 HH          12.7200    29.4210    22.3260 ho         1 OMZ       0.430000
@<TRIPOS>BOND
     1     1     2 1   
     2     1    16 1   
     3     1    17 1   
     4     2     3 1   
     5     2     6 1   
     6     2    18 1   
     7     3     4 1   
     8     3     5 1   
     9     6     7 1   
    10     6     8 1   
    11     6    19 1   
    12     7    20 1   
    13     8     9 ar  
    14     8    10 ar  
    15     9    11 ar  
    16     9    21 1   
    17    10    13 ar  
    18    10    22 1   
    19    11    12 1   
    20    11    14 ar  
    21    13    14 ar  
    22    13    23 1   
    23    14    15 1   
    24    15    24 1   
@<TRIPOS>SUBSTRUCTURE
     1 OMZ         1 TEMP              0 ****  ****    0 ROOT
