@<TRIPOS>MOLECULE
OMZ
   24    24     1     0     0
SMALL
No Charge or Current Charge


@<TRIPOS>ATOM
      1 N           17.3300    25.6800    26.2630 n8         1 OMZ      -0.879800
      2 CA          16.1740    24.7350    25.9750 c3         1 OMZ       0.035500
      3 C           14.8270    24.9210    26.7900 c          1 OMZ       0.928600
      4 O           14.1400    23.9280    27.0140 o          1 OMZ      -0.829300
      5 OXT         14.5530    26.0230    27.2590 o          1 OMZ      -0.829300
      6 CB          15.8480    24.6440    24.4530 c3         1 OMZ       0.155400
      7 OC          17.0270    24.2640    23.7230 oh         1 OMZ      -0.611800
      8 CG          15.2690    25.9370    23.8660 ca         1 OMZ      -0.120300
      9 CD1         13.8760    26.0480    23.6670 ca         1 OMZ      -0.041000
     10 CD2         16.1000    27.0240    23.5120 ca         1 OMZ      -0.093000
     11 CE1         13.3230    27.2230    23.1280 ca         1 OMZ      -0.062600
     12 Cl          11.5780    27.3260    22.8950 cl         1 OMZ      -0.142400
     13 CE2         15.5450    28.1980    22.9740 ca         1 OMZ      -0.174000
     14 CZ          14.1600    28.3010    22.7820 ca         1 OMZ       0.133100
     15 OH          13.6360    29.4460    22.2580 oh         1 OMZ      -0.506100
     16 H           18.0360    25.5350    25.5350 hn         1 OMZ       0.331300
     17 H2          17.0030    26.6400    26.1120 hn         1 OMZ       0.331300
     18 HA          16.5320    23.7370    26.2630 h1         1 OMZ       0.058700
     19 HB          15.0930    23.8540    24.3320 h1         1 OMZ       0.063700
     20 HC          16.7870    24.2790    22.7730 ho         1 OMZ       0.380000
     21 HD1         13.2170    25.2220    23.9300 ha         1 OMZ       0.177000
     22 HD2         17.1770    26.9600    23.6500 ha         1 OMZ       0.134000
     23 HE2         16.1910    29.0300    22.7040 ha         1 OMZ       0.132000
     24 HH          12.6640    29.3300    22.2000 ho         1 OMZ       0.430000
@<TRIPOS>BOND
     1     1     2 1   
     2     1    16 1   
     3     1    17 1   
     4     2     3 1   
     5     2     6 1   
     6     2    18 1   
     7     3     4 1   
     8     3     5 1   
     9     6     7 1   
    10     6     8 1   
    11     6    19 1   
    12     7    20 1   
    13     8     9 ar  
    14     8    10 ar  
    15     9    11 ar  
    16     9    21 1   
    17    10    13 ar  
    18    10    22 1   
    19    11    12 1   
    20    11    14 ar  
    21    13    14 ar  
    22    13    23 1   
    23    14    15 1   
    24    15    24 1   
@<TRIPOS>SUBSTRUCTURE
     1 OMZ         1 TEMP              0 ****  ****    0 ROOT
