@<TRIPOS>MOLECULE
ON0
   98   103     1     0     0
SMALL
No Charge or Current Charge


@<TRIPOS>ATOM
      1 C1           2.2730     0.4070     0.3060 c6         1 ON0       0.389300
      2 O1           2.2840    -1.0000    -0.0300 os         1 ON0      -0.461000
      3 C2           2.3690     1.3160    -0.9750 c6         1 ON0       0.116500
      4 N2           1.2510     1.1960    -1.9700 n8         1 ON0      -0.992200
      5 C3           3.7340     1.0950    -1.6740 c6         1 ON0       0.187300
      6 O3           3.7370     1.9020    -2.8590 oh         1 ON0      -0.713000
      7 C4           4.8730     1.4160    -0.6650 c6         1 ON0       0.131300
      8 O4           6.1990     1.2470    -1.2160 os         1 ON0      -0.445000
      9 C5           4.7020     0.4900     0.5710 c6         1 ON0       0.097300
     10 O5           3.3980     0.6840     1.1810 os         1 ON0      -0.470000
     11 C6           5.8610     0.7840     1.5540 c6         1 ON0       0.159600
     12 O6           7.1240     0.6780     0.8550 os         1 ON0      -0.465000
     13 CAL         11.1220     1.0300    -2.1530 ca         1 ON0      -0.099000
     14 CAM         10.7540     2.2880    -1.6470 ca         1 ON0      -0.120000
     15 CAN         10.2340    -0.0540    -2.0500 ca         1 ON0      -0.120000
     16 CAO          9.4980     2.4640    -1.0390 ca         1 ON0      -0.073000
     17 CAP          8.9780     0.1210    -1.4420 ca         1 ON0      -0.073000
     18 CBC          8.6020     1.3810    -0.9320 ca         1 ON0      -0.077300
     19 CBP          7.2360     1.5770    -0.2690 c6         1 ON0       0.425600
     20 CBD         -0.0220    -4.3460     1.3890 c6         1 ON0       0.118500
     21 CAT          1.4390    -4.2550     1.8670 c6         1 ON0      -0.114400
     22 CBE          2.2200    -3.2740     0.9530 c6         1 ON0       0.168500
     23 CBT          1.5380    -1.8590     0.8770 c6         1 ON0       0.178300
     24 CBW          0.0340    -1.9780     0.4440 c6         1 ON0       0.161300
     25 CBI         -0.7000    -2.9560     1.4240 c6         1 ON0       0.151300
     26 NAB         -0.8440    -5.3090     2.1700 n8         1 ON0      -1.017200
     27 NAC          3.6270    -3.1890     1.4090 n8         1 ON0      -0.992200
     28 O7          -0.5690    -0.6590     0.3440 os         1 ON0      -0.473000
     29 OAH         -2.0720    -3.2380     1.1490 oh         1 ON0      -0.746000
     30 C10         -2.4800     1.7320    -0.5340 c5         1 ON0       0.161300
     31 O9          -1.8160     0.6000    -1.1550 os         1 ON0      -0.460000
     32 C7          -1.8740    -0.5340    -0.2610 c5         1 ON0       0.361300
     33 C8          -2.8990    -0.1510     0.8790 c5         1 ON0       0.112300
     34 O2          -3.7290    -1.2300     1.3480 oh         1 ON0      -0.720000
     35 C9          -3.6560     1.0650     0.2400 c5         1 ON0       0.149300
     36 O8          -4.6190     0.6250    -0.7630 os         1 ON0      -0.434000
     37 C11         -1.4880     2.5440     0.3560 c3         1 ON0       0.144600
     38 O10         -0.5200     3.2370    -0.4520 oh         1 ON0      -0.715000
     39 CBM         -7.9320     1.2060     0.6840 c6         1 ON0       0.199300
     40 OAV         -6.6030     1.4540     0.1570 os         1 ON0      -0.437000
     41 CBQ         -5.9330     0.2550    -0.2940 c6         1 ON0       0.407300
     42 CBF         -6.7520    -0.4160    -1.4630 c6         1 ON0       0.143500
     43 NAD         -6.7700     0.4170    -2.7220 n8         1 ON0      -0.971200
     44 CBH         -8.2070    -0.7140    -0.9640 c6         1 ON0       0.134300
     45 OAG         -8.1960    -1.7280     0.0570 oh         1 ON0      -0.657000
     46 CBJ         -8.8500     0.6130    -0.4410 c6         1 ON0       0.118300
     47 OAI         -8.9620     1.5210    -1.5510 oh         1 ON0      -0.683000
     48 CAQ         -8.4960     2.5480     1.2700 c3         1 ON0       0.156800
     49 NAA         -7.7610     3.1040     2.4440 n8         1 ON0      -0.985200
     50 H1           1.3420     0.6650     0.8330 h2         1 ON0       0.091700
     51 H2           2.3450     2.3610    -0.6340 h1         1 ON0       0.037700
     52 HN2          0.8930     0.2330    -1.9300 hn         1 ON0       0.414000
     53 HN2A         0.4430     1.7280    -1.5990 hn         1 ON0       0.414000
     54 H3           3.8130     0.0330    -1.9560 h1         1 ON0       0.062700
     55 HO3          2.7640     1.9290    -3.0580 ho         1 ON0       0.514000
     56 H4           4.7670     2.4630    -0.3430 h1         1 ON0       0.051700
     57 H5           4.7910    -0.5560     0.2460 h1         1 ON0       0.074700
     58 H6           5.7590     1.7950     1.9740 h1         1 ON0       0.059700
     59 H6A          5.8450     0.0610     2.3810 h1         1 ON0       0.059700
     60 HAM         11.4410     3.1280    -1.7260 ha         1 ON0       0.111500
     61 HAN         10.5170    -1.0280    -2.4410 ha         1 ON0       0.111500
     62 HAO          9.2220     3.4420    -0.6500 ha         1 ON0       0.117500
     63 HAP          8.2940    -0.7220    -1.3650 ha         1 ON0       0.117500
     64 HBP          7.1340     2.6210     0.0630 h2         1 ON0       0.031700
     65 HBD         -0.0250    -4.7000     0.3440 h1         1 ON0       0.069700
     66 HAT          1.4770    -3.9150     2.9120 hc         1 ON0       0.054200
     67 HATA         1.9060    -5.2490     1.8360 hc         1 ON0       0.054200
     68 HBE          2.2440    -3.6860    -0.0670 h1         1 ON0       0.029700
     69 HBT          1.5760    -1.4230     1.8870 h1         1 ON0       0.072700
     70 HBW          0.0170    -2.4250    -0.5610 h1         1 ON0       0.063700
     71 HBI         -0.6110    -2.5510     2.4440 h1         1 ON0       0.047700
     72 HNAC        -0.4960    -6.2620     1.9960 hn         1 ON0       0.408000
     73 HNAD        -0.6470    -5.1820     3.1720 hn         1 ON0       0.408000
     74 HNAE         4.1270    -4.0300     1.1000 hn         1 ON0       0.403000
     75 HNAF         4.0740    -2.4320     0.8810 hn         1 ON0       0.403000
     76 HOAH        -2.0860    -4.1950     1.4560 ho         1 ON0       0.542000
     77 H10         -2.8610     2.4030    -1.3150 h1         1 ON0       0.107700
     78 H7          -2.1600    -1.4380    -0.8150 h2         1 ON0       0.069700
     79 H8          -2.3270     0.2200     1.7410 h1         1 ON0       0.052700
     80 HO2         -3.1390    -2.0470     1.3160 ho         1 ON0       0.544000
     81 H9          -4.1250     1.7380     0.9700 h1         1 ON0       0.076700
     82 H11         -2.0710     3.2690     0.9390 h1         1 ON0       0.028200
     83 H5'A        -0.9820     1.8810     1.0690 h1         1 ON0       0.028200
     84 HO5         -0.1310     3.9500     0.1070 ho         1 ON0       0.505000
     85 HBM         -7.8560     0.4840     1.5110 h1         1 ON0       0.030700
     86 HBQ         -5.8570    -0.4560     0.5400 h2         1 ON0       0.049700
     87 HBF         -6.2560    -1.3660    -1.7120 h1         1 ON0       0.051700
     88 HNAG        -5.8410     0.8530    -2.8070 hn         1 ON0       0.397000
     89 HNAH        -6.8010    -0.2140    -3.5330 hn         1 ON0       0.397000
     90 HBH         -8.7970    -1.0790    -1.8170 h1         1 ON0       0.030700
     91 HOAG        -9.1060    -2.0950     0.1090 ho         1 ON0       0.444000
     92 HBJ         -9.8460     0.4010    -0.0260 h1         1 ON0       0.017700
     93 HOAI        -8.1520     1.3030    -2.1020 ho         1 ON0       0.501000
     94 HAQ         -8.5010     3.3050     0.4730 h1         1 ON0       0.047200
     95 HAQA        -9.5390     2.3760     1.5700 h1         1 ON0       0.047200
     96 HNAA        -8.2550     3.9370     2.7870 hn         1 ON0       0.388000
     97 HNAB        -7.8240     2.4430     3.2270 hn         1 ON0       0.388000
     98 HAL         12.0940     0.8950    -2.6230 ha         1 ON0       0.110000
@<TRIPOS>BOND
     1     1     2 1   
     2     1     3 1   
     3     1    10 1   
     4     1    50 1   
     5     2    23 1   
     6     3     4 1   
     7     3     5 1   
     8     3    51 1   
     9     4    52 1   
    10     4    53 1   
    11     5     6 1   
    12     5     7 1   
    13     5    54 1   
    14     6    55 1   
    15     7     8 1   
    16     7     9 1   
    17     7    56 1   
    18     8    19 1   
    19     9    10 1   
    20     9    11 1   
    21     9    57 1   
    22    11    12 1   
    23    11    58 1   
    24    11    59 1   
    25    12    19 1   
    26    13    14 ar  
    27    13    15 ar  
    28    13    98 1   
    29    14    16 ar  
    30    14    60 1   
    31    15    17 ar  
    32    15    61 1   
    33    16    18 ar  
    34    16    62 1   
    35    17    18 ar  
    36    17    63 1   
    37    18    19 1   
    38    19    64 1   
    39    20    21 1   
    40    20    25 1   
    41    20    26 1   
    42    20    65 1   
    43    21    22 1   
    44    21    66 1   
    45    21    67 1   
    46    22    23 1   
    47    22    27 1   
    48    22    68 1   
    49    23    24 1   
    50    23    69 1   
    51    24    25 1   
    52    24    28 1   
    53    24    70 1   
    54    25    29 1   
    55    25    71 1   
    56    26    72 1   
    57    26    73 1   
    58    27    74 1   
    59    27    75 1   
    60    28    32 1   
    61    29    76 1   
    62    30    31 1   
    63    30    35 1   
    64    30    37 1   
    65    30    77 1   
    66    31    32 1   
    67    32    33 1   
    68    32    78 1   
    69    33    34 1   
    70    33    35 1   
    71    33    79 1   
    72    34    80 1   
    73    35    36 1   
    74    35    81 1   
    75    36    41 1   
    76    37    38 1   
    77    37    82 1   
    78    37    83 1   
    79    38    84 1   
    80    39    40 1   
    81    39    46 1   
    82    39    48 1   
    83    39    85 1   
    84    40    41 1   
    85    41    42 1   
    86    41    86 1   
    87    42    43 1   
    88    42    44 1   
    89    42    87 1   
    90    43    88 1   
    91    43    89 1   
    92    44    45 1   
    93    44    46 1   
    94    44    90 1   
    95    45    91 1   
    96    46    47 1   
    97    46    92 1   
    98    47    93 1   
    99    48    49 1   
   100    48    94 1   
   101    48    95 1   
   102    49    96 1   
   103    49    97 1   
@<TRIPOS>SUBSTRUCTURE
     1 ON0         1 TEMP              0 ****  ****    0 ROOT
