@<TRIPOS>MOLECULE
ON0
   98   103     1     0     0
SMALL
bcc


@<TRIPOS>ATOM
      1 C1           2.1280     0.5530     0.2380 c6         1 ON0       0.342900
      2 O1           1.9390    -0.6910    -0.3690 os         1 ON0      -0.414600
      3 C2           2.3070     1.6070    -0.8590 c6         1 ON0       0.116500
      4 N2           1.2240     1.5490    -1.8230 n8         1 ON0      -0.881800
      5 C3           3.6550     1.4500    -1.5740 c6         1 ON0       0.164100
      6 O3           3.8720     2.4900    -2.4980 oh         1 ON0      -0.590800
      7 C4           4.7340     1.4940    -0.5190 c6         1 ON0       0.108100
      8 O4           6.0170     1.2960    -1.0740 os         1 ON0      -0.398600
      9 C5           4.4760     0.3970     0.5070 c6         1 ON0       0.074100
     10 O5           3.2220     0.5590     1.1250 os         1 ON0      -0.423600
     11 C6           5.5790     0.4550     1.5480 c6         1 ON0       0.136400
     12 O6           6.8250     0.3510     0.8810 os         1 ON0      -0.418600
     13 CAL         10.8300     0.6900    -1.9100 ca         1 ON0      -0.117000
     14 CAM         10.6100     1.8290    -1.1500 ca         1 ON0      -0.138000
     15 CAN          9.8060    -0.2350    -2.0820 ca         1 ON0      -0.138000
     16 CAO          9.3670     2.0440    -0.5650 ca         1 ON0      -0.091000
     17 CAP          8.5670    -0.0210    -1.4970 ca         1 ON0      -0.091000
     18 CBC          8.3430     1.1230    -0.7350 ca         1 ON0      -0.077300
     19 CBP          7.0090     1.3490    -0.0860 c6         1 ON0       0.379200
     20 CBD          0.1760    -4.3620     0.8310 c6         1 ON0       0.118500
     21 CAT          1.6930    -4.2260     0.8020 c6         1 ON0      -0.114400
     22 CBE          2.1250    -3.0540    -0.0740 c6         1 ON0       0.168500
     23 CBT          1.5070    -1.7570     0.4560 c6         1 ON0       0.155100
     24 CBW         -0.0200    -1.8840     0.4410 c6         1 ON0       0.138100
     25 CBI         -0.4430    -3.0560     1.3180 c6         1 ON0       0.128100
     26 NAB         -0.3570    -5.4340     1.6560 n8         1 ON0      -0.906800
     27 NAC          3.5750    -2.9570    -0.0850 n8         1 ON0      -0.881800
     28 O7          -0.5960    -0.6930     0.9310 os         1 ON0      -0.426600
     29 OAH         -1.8490    -3.1680     1.3240 oh         1 ON0      -0.623800
     30 C10         -2.4770     1.9520     0.0770 c5         1 ON0       0.138100
     31 O9          -1.5780     0.9320    -0.3490 os         1 ON0      -0.413600
     32 C7          -1.7900    -0.2620     0.3630 c5         1 ON0       0.314900
     33 C8          -2.8150     0.0760     1.4490 c5         1 ON0       0.089100
     34 O2          -3.6110    -0.9950     1.8480 oh         1 ON0      -0.597800
     35 C9          -3.6010     1.2080     0.7940 c5         1 ON0       0.126100
     36 O8          -4.4740     0.6980    -0.1880 os         1 ON0      -0.387600
     37 C11         -1.7740     2.9730     0.9540 c3         1 ON0       0.121400
     38 O10         -0.7410     3.5580     0.2010 oh         1 ON0      -0.592800
     39 CBM         -7.9050     1.3720     0.2370 c6         1 ON0       0.176100
     40 OAV         -6.5620     1.5030    -0.1740 os         1 ON0      -0.390600
     41 CBQ         -5.7700     0.4110     0.2090 c6         1 ON0       0.360900
     42 CBF         -6.2280    -0.8850    -0.4590 c6         1 ON0       0.143500
     43 NAD         -5.9980    -0.8350    -1.8910 n8         1 ON0      -0.860800
     44 CBH         -7.7150    -1.0980    -0.1660 c6         1 ON0       0.111100
     45 OAG         -7.8070    -1.4830     1.1880 oh         1 ON0      -0.594800
     46 CBJ         -8.5600     0.1620    -0.4200 c6         1 ON0       0.095100
     47 OAI         -8.7410     0.4270    -1.7860 oh         1 ON0      -0.560800
     48 CAQ         -8.6430     2.6670    -0.0520 c3         1 ON0       0.156800
     49 NAA         -8.1240     3.7590     0.7550 n8         1 ON0      -0.874800
     50 H1           1.2720     0.8200     0.8620 h2         1 ON0       0.091700
     51 H2           2.3350     2.5700    -0.3230 h1         1 ON0       0.037700
     52 HN2          0.3420     1.4520    -1.3330 hn         1 ON0       0.358800
     53 HN2A         1.1600     2.4470    -2.2880 hn         1 ON0       0.358800
     54 H3           3.6790     0.4730    -2.0790 h1         1 ON0       0.062700
     55 HO3          3.3260     2.3220    -3.2730 ho         1 ON0       0.415000
     56 H4           4.6980     2.4730    -0.0120 h1         1 ON0       0.051700
     57 H5           4.5430    -0.5740     0.0060 h1         1 ON0       0.074700
     58 H6           5.5190     1.3910     2.1220 h1         1 ON0       0.059700
     59 H6A          5.5150    -0.3790     2.2470 h1         1 ON0       0.059700
     60 HAM         11.4040     2.5520    -1.0100 ha         1 ON0       0.129500
     61 HAN          9.9750    -1.1250    -2.6740 ha         1 ON0       0.129500
     62 HAO          9.1980     2.9340     0.0290 ha         1 ON0       0.135500
     63 HAP          7.7760    -0.7470    -1.6390 ha         1 ON0       0.135500
     64 HBP          6.9780     2.3390     0.4040 h2         1 ON0       0.031700
     65 HBD         -0.1770    -4.5410    -0.1920 h1         1 ON0       0.069700
     66 HAT          2.0750    -4.0840     1.8190 hc         1 ON0       0.054200
     67 HATA         2.1370    -5.1500     0.4210 hc         1 ON0       0.054200
     68 HBE          1.7140    -3.2250    -1.0830 h1         1 ON0       0.029700
     69 HBT          1.8520    -1.6090     1.4880 h1         1 ON0       0.072700
     70 HBW         -0.3500    -2.0630    -0.5930 h1         1 ON0       0.063700
     71 HBI         -0.0740    -2.8640     2.3400 h1         1 ON0       0.047700
     72 HNAC        -0.1870    -6.3330     1.2250 hn         1 ON0       0.352800
     73 HNAD         0.1130    -5.4510     2.5540 hn         1 ON0       0.352800
     74 HNAE         3.9620    -3.8610    -0.3310 hn         1 ON0       0.347800
     75 HNAF         3.8630    -2.3340    -0.8280 hn         1 ON0       0.347800
     76 HOAH        -2.0260    -4.0750     1.6230 ho         1 ON0       0.443000
     77 H10         -2.8620     2.4610    -0.8120 h1         1 ON0       0.107700
     78 H7          -2.1840    -1.0230    -0.3230 h2         1 ON0       0.069700
     79 H8          -2.2650     0.4990     2.3040 h1         1 ON0       0.052700
     80 HO2         -3.0750    -1.8050     1.8120 ho         1 ON0       0.445000
     81 H9          -4.1310     1.8430     1.5120 h1         1 ON0       0.076700
     82 H11         -2.5180     3.7160     1.2710 h1         1 ON0       0.028200
     83 H5'A        -1.3910     2.4950     1.8630 h1         1 ON0       0.028200
     84 HO5         -0.1920     4.0790     0.7940 ho         1 ON0       0.406000
     85 HBM         -7.9460     1.1950     1.3260 h1         1 ON0       0.030700
     86 HBQ         -5.8330     0.2800     1.3000 h2         1 ON0       0.049700
     87 HBF         -5.6790    -1.7020     0.0330 h1         1 ON0       0.051700
     88 HNAG        -5.0010    -0.8140    -2.0620 hn         1 ON0       0.341800
     89 HNAH        -6.3240    -1.6980    -2.3080 hn         1 ON0       0.341800
     90 HBH         -8.0890    -1.9070    -0.8160 h1         1 ON0       0.030700
     91 HOAG        -8.7350    -1.6040     1.4120 ho         1 ON0       0.405000
     92 HBJ         -9.5350     0.0090     0.0740 h1         1 ON0       0.017700
     93 HOAI        -8.9420    -0.3980    -2.2380 ho         1 ON0       0.402000
     94 HAQ         -8.5200     2.9270    -1.1060 h1         1 ON0       0.047200
     95 HAQA        -9.7150     2.4780     0.1000 h1         1 ON0       0.047200
     96 HNAA        -8.5880     4.6170     0.4870 hn         1 ON0       0.332800
     97 HNAB        -8.3710     3.6080     1.7250 hn         1 ON0       0.332800
     98 HAL         11.7960     0.5210    -2.3680 ha         1 ON0       0.128000
@<TRIPOS>BOND
     1     1     2 1   
     2     1     3 1   
     3     1    10 1   
     4     1    50 1   
     5     2    23 1   
     6     3     4 1   
     7     3     5 1   
     8     3    51 1   
     9     4    52 1   
    10     4    53 1   
    11     5     6 1   
    12     5     7 1   
    13     5    54 1   
    14     6    55 1   
    15     7     8 1   
    16     7     9 1   
    17     7    56 1   
    18     8    19 1   
    19     9    10 1   
    20     9    11 1   
    21     9    57 1   
    22    11    12 1   
    23    11    58 1   
    24    11    59 1   
    25    12    19 1   
    26    13    14 ar  
    27    13    15 ar  
    28    13    98 1   
    29    14    16 ar  
    30    14    60 1   
    31    15    17 ar  
    32    15    61 1   
    33    16    18 ar  
    34    16    62 1   
    35    17    18 ar  
    36    17    63 1   
    37    18    19 1   
    38    19    64 1   
    39    20    21 1   
    40    20    25 1   
    41    20    26 1   
    42    20    65 1   
    43    21    22 1   
    44    21    66 1   
    45    21    67 1   
    46    22    23 1   
    47    22    27 1   
    48    22    68 1   
    49    23    24 1   
    50    23    69 1   
    51    24    25 1   
    52    24    28 1   
    53    24    70 1   
    54    25    29 1   
    55    25    71 1   
    56    26    72 1   
    57    26    73 1   
    58    27    74 1   
    59    27    75 1   
    60    28    32 1   
    61    29    76 1   
    62    30    31 1   
    63    30    35 1   
    64    30    37 1   
    65    30    77 1   
    66    31    32 1   
    67    32    33 1   
    68    32    78 1   
    69    33    34 1   
    70    33    35 1   
    71    33    79 1   
    72    34    80 1   
    73    35    36 1   
    74    35    81 1   
    75    36    41 1   
    76    37    38 1   
    77    37    82 1   
    78    37    83 1   
    79    38    84 1   
    80    39    40 1   
    81    39    46 1   
    82    39    48 1   
    83    39    85 1   
    84    40    41 1   
    85    41    42 1   
    86    41    86 1   
    87    42    43 1   
    88    42    44 1   
    89    42    87 1   
    90    43    88 1   
    91    43    89 1   
    92    44    45 1   
    93    44    46 1   
    94    44    90 1   
    95    45    91 1   
    96    46    47 1   
    97    46    92 1   
    98    47    93 1   
    99    48    49 1   
   100    48    94 1   
   101    48    95 1   
   102    49    96 1   
   103    49    97 1   
@<TRIPOS>SUBSTRUCTURE
     1 ON0         1 TEMP              0 ****  ****    0 ROOT
