@<TRIPOS>MOLECULE
ON1
   27    28     1     0     0
SMALL
No Charge or Current Charge


@<TRIPOS>ATOM
      1 C1          -1.7170     0.4390     0.9500 ca         1 ON1      -0.075000
      2 N1           1.8290     0.5640     0.9230 nb         1 ON1      -0.151000
      3 O1           4.6590    -0.2680    -1.2770 oh         1 ON1      -0.494100
      4 Cl1         -4.9450    -0.6010    -1.3060 cl         1 ON1      -0.201000
      5 C2          -2.8950     0.5160     0.1870 ca         1 ON1       0.118000
      6 N2           1.9800    -1.8230     0.6370 nb         1 ON1      -0.283000
      7 O2           3.6260    -2.7700    -0.6680 oh         1 ON1      -0.677300
      8 Cl2         -3.6330     2.0950    -0.0900 cl         1 ON1      -0.182000
      9 C3          -3.4670    -0.6590    -0.3430 ca         1 ON1       0.109000
     10 O3           2.5240     3.0780    -0.0620 o          1 ON1      -0.690500
     11 C4          -2.8550    -1.9010    -0.1090 ca         1 ON1      -0.110000
     12 O4           4.5650     2.4430    -0.2250 o          1 ON1      -0.690500
     13 C5          -1.6760    -1.9750     0.6540 ca         1 ON1      -0.096000
     14 C6          -1.1020    -0.8060     1.1890 ca         1 ON1      -0.052300
     15 C7           0.1800    -0.8850     2.0080 c3         1 ON1      -0.060400
     16 C8           1.4140    -0.7040     1.1360 ca         1 ON1       0.100300
     17 C9           2.9250     0.7530     0.1420 ca         1 ON1       0.072500
     18 C10          3.5780    -0.3690    -0.4360 ca         1 ON1       0.038100
     19 C11          3.0540    -1.6480    -0.1450 ca         1 ON1       0.237300
     20 C12          3.3740     2.1950    -0.0890 c          1 ON1       0.635500
     21 H1          -1.2800     1.3500     1.3520 ha         1 ON1       0.160000
     22 H4          -3.2930    -2.8080    -0.5190 ha         1 ON1       0.119000
     23 H5          -1.2070    -2.9420     0.8270 ha         1 ON1       0.119000
     24 H7           0.1650    -0.1250     2.8000 hc         1 ON1       0.063700
     25 H7A          0.2290    -1.8460     2.5360 hc         1 ON1       0.063700
     26 H71          4.9020    -1.1880    -1.5310 ho         1 ON1       0.452000
     27 H8           3.1010    -3.5340    -0.3400 ho         1 ON1       0.475000
@<TRIPOS>BOND
     1     1     5 ar  
     2     1    14 ar  
     3     1    21 1   
     4     2    16 ar  
     5     2    17 ar  
     6     3    18 1   
     7     3    26 1   
     8     4     9 1   
     9     5     8 1   
    10     5     9 ar  
    11     6    16 ar  
    12     6    19 ar  
    13     7    19 1   
    14     7    27 1   
    15     9    11 ar  
    16    10    20 1   
    17    11    13 ar  
    18    11    22 1   
    19    12    20 1   
    20    13    14 ar  
    21    13    23 1   
    22    14    15 1   
    23    15    16 1   
    24    15    24 1   
    25    15    25 1   
    26    17    18 ar  
    27    17    20 1   
    28    18    19 ar  
@<TRIPOS>SUBSTRUCTURE
     1 ON1         1 TEMP              0 ****  ****    0 ROOT
