@<TRIPOS>MOLECULE
ON1
   27    28     1     0     0
SMALL
abcg2


@<TRIPOS>ATOM
      1 C1          -1.5710     0.3830     0.7950 ca         1 ON1      -0.075000
      2 N1           1.8680     0.5440     1.0520 nb         1 ON1      -0.151000
      3 O1           4.5360    -0.1040    -1.2700 oh         1 ON1      -0.494100
      4 CL1         -4.8080    -0.6840    -1.2940 cl         1 ON1      -0.201000
      5 C2          -2.7160     0.4370     0.0170 ca         1 ON1       0.118000
      6 N2           1.8640    -1.7490     0.5380 nb         1 ON1      -0.283000
      7 O2           3.3990    -2.6120    -0.9240 oh         1 ON1      -0.677300
      8 CL2         -3.3100     1.9680    -0.5050 cl         1 ON1      -0.182000
      9 C3          -3.3780    -0.7350    -0.3350 ca         1 ON1       0.109000
     10 O3           2.7710     2.9160    -0.5900 o          1 ON1      -0.690500
     11 C4          -2.8830    -1.9550     0.0950 ca         1 ON1      -0.110000
     12 O4           4.5050     2.3730     0.7200 o          1 ON1      -0.690500
     13 C5          -1.7350    -2.0040     0.8710 ca         1 ON1      -0.096000
     14 C6          -1.0710    -0.8380     1.2340 ca         1 ON1      -0.052300
     15 C7           0.1920    -0.8830     2.0550 c3         1 ON1      -0.060400
     16 C8           1.3940    -0.6800     1.1740 ca         1 ON1       0.100300
     17 C9           2.9110     0.7310     0.2340 ca         1 ON1       0.072500
     18 C10          3.4790    -0.3210    -0.4590 ca         1 ON1       0.038100
     19 C11          2.8900    -1.5730    -0.2650 ca         1 ON1       0.237300
     20 C12          3.4520     2.1460     0.1040 c          1 ON1       0.635500
     21 H1          -1.0640     1.3030     1.0580 ha         1 ON1       0.160000
     22 H4          -3.3960    -2.8680    -0.1760 ha         1 ON1       0.119000
     23 H5          -1.3600    -2.9650     1.1980 ha         1 ON1       0.119000
     24 H7           0.1710    -0.1010     2.8140 hc         1 ON1       0.063700
     25 H7A          0.2660    -1.8440     2.5650 hc         1 ON1       0.063700
     26 H71          4.7390    -0.8910    -1.7880 ho         1 ON1       0.452000
     27 H8           2.8910    -3.4090    -0.7150 ho         1 ON1       0.475000
@<TRIPOS>BOND
     1     1     5 ar  
     2     1    14 ar  
     3     1    21 1   
     4     2    16 ar  
     5     2    17 ar  
     6     3    18 1   
     7     3    26 1   
     8     4     9 1   
     9     5     8 1   
    10     5     9 ar  
    11     6    16 ar  
    12     6    19 ar  
    13     7    19 1   
    14     7    27 1   
    15     9    11 ar  
    16    10    20 1   
    17    11    13 ar  
    18    11    22 1   
    19    12    20 1   
    20    13    14 ar  
    21    13    23 1   
    22    14    15 1   
    23    15    16 1   
    24    15    24 1   
    25    15    25 1   
    26    17    18 ar  
    27    17    20 1   
    28    18    19 ar  
@<TRIPOS>SUBSTRUCTURE
     1 ON1         1 TEMP              0 ****  ****    0 ROOT
