@<TRIPOS>MOLECULE
ON2
   41    43     1     0     0
SMALL
No Charge or Current Charge


@<TRIPOS>ATOM
      1 C4           7.1240    -4.1480     7.6940 c          1 ON2       0.651700
      2 C14         11.6850    -4.8220     6.8480 ca         1 ON2      -0.189000
      3 C5           9.5960    -4.1560     7.8530 cc         1 ON2       0.443800
      4 C6          11.7900    -4.1370     8.0390 ca         1 ON2       0.096400
      5 C11         17.0440    -6.3710     4.5850 c3         1 ON2      -0.158400
      6 C7          13.0580    -3.8740     8.5790 ca         1 ON2      -0.038000
      7 C8          14.2080    -4.3160     7.8940 ca         1 ON2      -0.158000
      8 C9          14.0990    -5.0200     6.6740 ca         1 ON2      -0.025000
      9 C10         15.5580    -6.1610     4.8880 c          1 ON2       0.601100
     10 C12         17.4760    -5.5120     3.3860 c3         1 ON2       0.158800
     11 C13         12.8120    -5.2750     6.1430 ca         1 ON2      -0.089000
     12 N1           4.5840    -3.8600     8.0150 na         1 ON2      -0.058000
     13 N2           8.3260    -3.8570     8.2810 ns         1 ON2      -0.386400
     14 C3           5.9180    -3.6800     8.4200 cc         1 ON2      -0.242600
     15 N3          10.5980    -3.7430     8.6360 nd         1 ON2      -0.596100
     16 C2           3.6960    -3.2930     8.9330 cc         1 ON2      -0.104300
     17 O1           7.0310    -4.7550     6.6390 o          1 ON2      -0.596100
     18 N4          15.3070    -5.4300     6.0430 ns         1 ON2      -0.145000
     19 O2          14.6870    -6.6380     4.1690 o          1 ON2      -0.586100
     20 N5          18.9050    -5.7160     3.0840 n8         1 ON2      -1.003200
     21 S1          10.0140    -5.0390     6.3550 ss         1 ON2       0.116800
     22 C15          5.8400    -2.9870     9.6120 cd         1 ON2       0.111000
     23 Cl1          7.1130    -2.4300    10.6630 cl         1 ON2      -0.141000
     24 C16          4.4790    -2.7570     9.9150 cd         1 ON2       0.032000
     25 Cl2          3.9290    -1.9150    11.3320 cl         1 ON2      -0.148000
     26 H1          17.2050    -7.4260     4.3350 hc         1 ON2       0.067700
     27 H2          17.6490    -6.0940     5.4560 hc         1 ON2       0.067700
     28 H3          13.1500    -3.3330     9.5170 ha         1 ON2       0.132000
     29 H4          15.1880    -4.1090     8.3170 ha         1 ON2       0.112000
     30 H5          17.3030    -4.4480     3.6050 h1         1 ON2       0.044700
     31 H6          16.8830    -5.7850     2.5000 h1         1 ON2       0.044700
     32 H7          12.6700    -5.8070     5.2060 ha         1 ON2       0.160000
     33 H8           4.3040    -4.3420     7.1630 hn         1 ON2       0.377000
     34 H9           8.2620    -3.3520     9.1490 hn         1 ON2       0.353500
     35 H10          1.7370    -3.8210     9.6570 hc         1 ON2       0.060700
     36 H11          1.7990    -2.2860     8.7730 hc         1 ON2       0.060700
     37 H12          1.8750    -3.8210     7.8900 hc         1 ON2       0.060700
     38 H13         16.1410    -5.1280     6.5290 hn         1 ON2       0.149000
     39 H14         19.1760    -5.0990     2.3080 hn         1 ON2       0.396000
     40 H15         19.4690    -5.3710     3.8710 hn         1 ON2       0.396000
     41 C1           2.1960    -3.3070     8.8040 c3         1 ON2      -0.032800
@<TRIPOS>BOND
     1     1    13 1   
     2     1    14 1   
     3     1    17 2   
     4     2     4 ar  
     5     2    11 ar  
     6     2    21 1   
     7     3    13 1   
     8     3    15 2   
     9     3    21 1   
    10     4     6 ar  
    11     4    15 1   
    12     5     9 1   
    13     5    10 1   
    14     5    26 1   
    15     5    27 1   
    16     6     7 ar  
    17     6    28 1   
    18     7     8 ar  
    19     7    29 1   
    20     8    11 ar  
    21     8    18 1   
    22     9    18 1   
    23     9    19 2   
    24    10    20 1   
    25    10    30 1   
    26    10    31 1   
    27    11    32 1   
    28    12    14 1   
    29    12    16 1   
    30    12    33 1   
    31    13    34 1   
    32    14    22 2   
    33    16    24 2   
    34    16    41 1   
    35    18    38 1   
    36    20    39 1   
    37    20    40 1   
    38    22    23 1   
    39    22    24 1   
    40    24    25 1   
    41    35    41 1   
    42    36    41 1   
    43    37    41 1   
@<TRIPOS>SUBSTRUCTURE
     1 ON2         1 TEMP              0 ****  ****    0 ROOT
