@<TRIPOS>MOLECULE
ON2
   41    43     1     0     0
SMALL
abcg2


@<TRIPOS>ATOM
      1 C4           7.3220    -3.9220     8.0040 c          1 ON2       0.651700
      2 C14         11.7820    -4.6010     7.0910 ca         1 ON2      -0.189000
      3 C5           9.7480    -3.9510     8.2710 cc         1 ON2       0.443800
      4 C6          11.9490    -4.0300     8.3660 ca         1 ON2       0.096400
      5 C11         16.8710    -6.1810     4.5510 c3         1 ON2      -0.158400
      6 C7          13.2430    -3.8690     8.8670 ca         1 ON2      -0.038000
      7 C8          14.3170    -4.2770     8.1010 ca         1 ON2      -0.158000
      8 C9          14.1370    -4.8520     6.8270 ca         1 ON2      -0.025000
      9 C10         15.4400    -5.8890     4.9570 c          1 ON2       0.601100
     10 C12         17.1500    -5.7560     3.1120 c3         1 ON2       0.158800
     11 C13         12.8530    -5.0160     6.3080 ca         1 ON2      -0.089000
     12 N1           4.9020    -3.7680     7.9370 na         1 ON2      -0.058000
     13 N2           8.4720    -3.6890     8.7120 ns         1 ON2      -0.386400
     14 C3           6.0640    -3.5870     8.6500 cc         1 ON2      -0.242600
     15 N3          10.7780    -3.6750     9.0090 nd         1 ON2      -0.596100
     16 C2           3.8090    -3.4230     8.6570 cc         1 ON2      -0.104300
     17 O1           7.3500    -4.3930     6.8660 o          1 ON2      -0.596100
     18 N4          15.3050    -5.2290     6.1400 ns         1 ON2      -0.145000
     19 O2          14.4900    -6.2390     4.2610 o          1 ON2      -0.586100
     20 N5          18.5120    -6.1420     2.7280 n8         1 ON2      -1.003200
     21 S1          10.0790    -4.6770     6.7020 ss         1 ON2       0.116800
     22 C15          5.6780    -3.1010     9.8980 cd         1 ON2       0.111000
     23 CL1          6.6900    -2.6960    11.2270 cl         1 ON2      -0.141000
     24 C16          4.2740    -3.0010     9.8980 cd         1 ON2       0.032000
     25 CL2          3.2900    -2.4590    11.2000 cl         1 ON2      -0.148000
     26 H1          17.0200    -7.2610     4.6410 hc         1 ON2       0.067700
     27 H2          17.5780    -5.6960     5.2270 hc         1 ON2       0.067700
     28 H3          13.3960    -3.4290     9.8440 ha         1 ON2       0.132000
     29 H4          15.3240    -4.1550     8.4820 ha         1 ON2       0.112000
     30 H5          16.9650    -4.6770     3.0170 h1         1 ON2       0.044700
     31 H6          16.4500    -6.2630     2.4470 h1         1 ON2       0.044700
     32 H7          12.7080    -5.4520     5.3350 ha         1 ON2       0.160000
     33 H8           4.8910    -4.1110     6.9870 hn         1 ON2       0.377000
     34 H9           8.4140    -3.2940     9.6420 hn         1 ON2       0.353500
     35 H10          1.8510    -4.2650     8.6950 hc         1 ON2       0.060700
     36 H11          1.9050    -2.5640     8.2390 hc         1 ON2       0.060700
     37 H12          2.4300    -3.8040     7.0860 hc         1 ON2       0.060700
     38 H13         16.1650    -5.0040     6.6160 hn         1 ON2       0.149000
     39 H14         18.6740    -5.8970     1.7570 hn         1 ON2       0.396000
     40 H15         19.1840    -5.6040     3.2680 hn         1 ON2       0.396000
     41 C1           2.4220    -3.5200     8.1370 c3         1 ON2      -0.032800
@<TRIPOS>BOND
     1     1    13 1   
     2     1    14 1   
     3     1    17 2   
     4     2     4 ar  
     5     2    11 ar  
     6     2    21 1   
     7     3    13 1   
     8     3    15 2   
     9     3    21 1   
    10     4     6 ar  
    11     4    15 1   
    12     5     9 1   
    13     5    10 1   
    14     5    26 1   
    15     5    27 1   
    16     6     7 ar  
    17     6    28 1   
    18     7     8 ar  
    19     7    29 1   
    20     8    11 ar  
    21     8    18 1   
    22     9    18 1   
    23     9    19 2   
    24    10    20 1   
    25    10    30 1   
    26    10    31 1   
    27    11    32 1   
    28    12    14 1   
    29    12    16 1   
    30    12    33 1   
    31    13    34 1   
    32    14    22 2   
    33    16    24 2   
    34    16    41 1   
    35    18    38 1   
    36    20    39 1   
    37    20    40 1   
    38    22    23 1   
    39    22    24 1   
    40    24    25 1   
    41    35    41 1   
    42    36    41 1   
    43    37    41 1   
@<TRIPOS>SUBSTRUCTURE
     1 ON2         1 TEMP              0 ****  ****    0 ROOT
