@<TRIPOS>MOLECULE
ON3
   71    75     1     0     0
SMALL
abcg2


@<TRIPOS>ATOM
      1 C1          -2.3420    -1.9280     0.0980 ca         1 ON3      -0.033300
      2 C2          -3.2010    -2.1620    -0.9670 ca         1 ON3      -0.215500
      3 C3          -4.5780    -2.0710    -0.7750 ca         1 ON3       0.165100
      4 C4          -5.1210    -1.7380     0.4710 ca         1 ON3      -0.145300
      5 C5          -4.2330    -1.5340     1.5310 ca         1 ON3       0.165100
      6 C6          -2.8540    -1.6260     1.3490 ca         1 ON3      -0.215500
      7 C9          -6.6060    -1.6290     0.6690 c3         1 ON3      -0.021800
      8 O17         -5.4730    -2.2920    -1.7610 os         1 ON3      -0.345100
      9 O18         -4.7980    -1.2430     2.7210 os         1 ON3      -0.345100
     10 C19         -3.9620    -0.9260     3.8140 c3         1 ON3       0.149400
     11 C23         -0.8440    -1.9250    -0.1080 c3         1 ON3       0.208600
     12 O25         -0.3820    -2.9950    -0.8960 oh         1 ON3      -0.693000
     13 C27         -0.4030    -0.5680    -0.6900 c3         1 ON3       0.148300
     14 O29         -0.7830     0.4270     0.2290 os         1 ON3      -0.432000
     15 C30         -1.3370     1.5880    -0.3320 c5         1 ON3       0.169300
     16 C31         -1.4200     2.6980     0.7210 c5         1 ON3      -0.051100
     17 C32         -2.7790     1.4450    -0.8580 c5         1 ON3      -0.051100
     18 C38         -2.5220     3.5650     0.1850 ca         1 ON3      -0.084300
     19 C39         -3.2980     2.8480    -0.7260 ca         1 ON3      -0.084300
     20 C40         -4.3820     3.4450    -1.3490 ca         1 ON3      -0.096000
     21 C41         -4.6870     4.7700    -1.0510 ca         1 ON3      -0.115500
     22 C42         -3.9150     5.4840    -0.1410 ca         1 ON3      -0.115500
     23 C43         -2.8250     4.8840     0.4830 ca         1 ON3      -0.096000
     24 C48          1.0830    -0.4850    -0.9860 c3         1 ON3       0.155600
     25 O51          1.7920    -0.7410     0.2060 os         1 ON3      -0.345100
     26 C52          5.9470    -0.5170     0.3660 ca         1 ON3       0.005700
     27 C53          5.1690    -0.8340     1.4780 ca         1 ON3      -0.068000
     28 C54          3.7890    -0.9040     1.4030 ca         1 ON3      -0.175500
     29 C55          3.1390    -0.6550     0.1940 ca         1 ON3       0.101100
     30 C56          3.8980    -0.3430    -0.9310 ca         1 ON3      -0.175500
     31 C57          5.2840    -0.2770    -0.8300 ca         1 ON3      -0.068000
     32 C62          7.4300    -0.4020     0.4660 cx         1 ON3      -0.194700
     33 C63          8.1980    -1.5770     1.0110 cx         1 ON3      -0.123900
     34 C64          8.2730    -1.2600    -0.4420 cx         1 ON3      -0.123900
     35 C69          7.9750     0.9910     0.7860 c          1 ON3       0.745000
     36 O70          9.2110     1.0970     0.9130 o          1 ON3      -0.722500
     37 O71          7.1370     1.9070     0.8880 o          1 ON3      -0.722500
     38 H1          -2.8070    -2.4030    -1.9450 ha         1 ON3       0.120500
     39 H2          -2.1690    -1.4570     2.1680 ha         1 ON3       0.120500
     40 H3          -7.0440    -2.5830     0.9720 hc         1 ON3       0.040700
     41 H4          -6.8540    -0.9020     1.4400 hc         1 ON3       0.040700
     42 H5          -7.1100    -1.3210    -0.2450 hc         1 ON3       0.040700
     43 H6          -5.8830    -2.7160    -3.6840 h1         1 ON3       0.039700
     44 H7          -4.3800    -1.8010    -3.4690 h1         1 ON3       0.039700
     45 H8          -4.4340    -3.5330    -3.0750 h1         1 ON3       0.039700
     46 H9          -4.6200    -0.6710     4.6420 h1         1 ON3       0.039700
     47 H10         -3.3370    -1.7720     4.1130 h1         1 ON3       0.039700
     48 H11         -3.3160    -0.0700     3.6010 h1         1 ON3       0.039700
     49 H12         -0.3650    -2.0520     0.8670 h1         1 ON3       0.112700
     50 H13         -0.6770    -2.8830    -1.8050 ho         1 ON3       0.489000
     51 H14         -0.9120    -0.4280    -1.6560 h1         1 ON3       0.030700
     52 H15         -0.7110     1.9500    -1.1610 h1         1 ON3       0.039700
     53 H16         -1.7080     2.2700     1.6890 hc         1 ON3       0.066200
     54 H17         -0.4740     3.2220     0.8630 hc         1 ON3       0.066200
     55 H18         -2.8380     1.0520    -1.8740 hc         1 ON3       0.066200
     56 H19         -3.3460     0.7660    -0.2130 hc         1 ON3       0.066200
     57 H20         -4.9830     2.8930    -2.0620 ha         1 ON3       0.113000
     58 H21         -5.5290     5.2510    -1.5340 ha         1 ON3       0.106500
     59 H22         -4.1590     6.5150     0.0790 ha         1 ON3       0.106500
     60 H23         -2.2230     5.4450     1.1870 ha         1 ON3       0.113000
     61 H24          1.3510    -1.2020    -1.7690 h1         1 ON3       0.035700
     62 H25          1.3160     0.5150    -1.3710 h1         1 ON3       0.035700
     63 H28          3.4350    -0.1490    -1.8890 ha         1 ON3       0.098500
     64 H29          5.8570    -0.0340    -1.7170 ha         1 ON3       0.111000
     65 H30          9.0620    -1.3650     1.6270 hc         1 ON3       0.056950
     66 H31          7.6340    -2.4520     1.3120 hc         1 ON3       0.056950
     67 H32          7.7590    -1.9170    -1.1340 hc         1 ON3       0.056950
     68 H33          9.1880    -0.8290    -0.8260 hc         1 ON3       0.056950
     69 H26          5.6520    -1.0370     2.4270 ha         1 ON3       0.111000
     70 C13         -5.0030    -2.5990    -3.0560 c3         1 ON3       0.149400
     71 H27          3.2050    -1.1550     2.2800 ha         1 ON3       0.098500
@<TRIPOS>BOND
     1     1     2 ar  
     2     1     6 ar  
     3     1    11 1   
     4     2     3 ar  
     5     2    38 1   
     6     3     4 ar  
     7     3     8 1   
     8     4     5 ar  
     9     4     7 1   
    10     5     6 ar  
    11     5     9 1   
    12     6    39 1   
    13     7    40 1   
    14     7    41 1   
    15     7    42 1   
    16     8    70 1   
    17     9    10 1   
    18    10    46 1   
    19    10    47 1   
    20    10    48 1   
    21    11    12 1   
    22    11    13 1   
    23    11    49 1   
    24    12    50 1   
    25    13    14 1   
    26    13    24 1   
    27    13    51 1   
    28    14    15 1   
    29    15    16 1   
    30    15    17 1   
    31    15    52 1   
    32    16    18 1   
    33    16    53 1   
    34    16    54 1   
    35    17    19 1   
    36    17    55 1   
    37    17    56 1   
    38    18    19 ar  
    39    18    23 ar  
    40    19    20 ar  
    41    20    21 ar  
    42    20    57 1   
    43    21    22 ar  
    44    21    58 1   
    45    22    23 ar  
    46    22    59 1   
    47    23    60 1   
    48    24    25 1   
    49    24    61 1   
    50    24    62 1   
    51    25    29 1   
    52    26    27 ar  
    53    26    31 ar  
    54    26    32 1   
    55    27    28 ar  
    56    27    69 1   
    57    28    29 ar  
    58    28    71 1   
    59    29    30 ar  
    60    30    31 ar  
    61    30    63 1   
    62    31    64 1   
    63    32    33 1   
    64    32    34 1   
    65    32    35 1   
    66    33    34 1   
    67    33    65 1   
    68    33    66 1   
    69    34    67 1   
    70    34    68 1   
    71    35    36 1   
    72    35    37 1   
    73    43    70 1   
    74    44    70 1   
    75    45    70 1   
@<TRIPOS>SUBSTRUCTURE
     1 ON3         1 TEMP              0 ****  ****    0 ROOT
