@<TRIPOS>MOLECULE
ON3
   71    75     1     0     0
SMALL
No Charge or Current Charge


@<TRIPOS>ATOM
      1 C1          -2.4800    -2.0380     0.2610 ca         1 ON3      -0.033300
      2 C2          -3.4810    -1.8410    -0.7080 ca         1 ON3      -0.215500
      3 C3          -4.8460    -1.8690    -0.3540 ca         1 ON3       0.165100
      4 C4          -5.2210    -2.1050     0.9880 ca         1 ON3      -0.145300
      5 C5          -4.2200    -2.3270     1.9600 ca         1 ON3       0.165100
      6 C6          -2.8580    -2.2910     1.5910 ca         1 ON3      -0.215500
      7 C9          -6.7020    -2.1390     1.3820 c3         1 ON3      -0.021800
      8 O17         -5.8410    -1.6720    -1.2950 os         1 ON3      -0.345100
      9 O18         -4.6090    -2.5810     3.2630 os         1 ON3      -0.345100
     10 C19         -3.6660    -2.8140     4.3250 c3         1 ON3       0.149400
     11 C23         -0.9930    -1.9890    -0.1200 c3         1 ON3       0.208600
     12 O25         -0.6880    -3.1260    -0.9520 oh         1 ON3      -0.693000
     13 C27         -0.6030    -0.6650    -0.8450 c3         1 ON3       0.148300
     14 O29         -1.0470     0.4470    -0.0210 os         1 ON3      -0.432000
     15 C30         -1.0740     1.7780    -0.5930 c5         1 ON3       0.169300
     16 C31         -1.5570     2.7690     0.5330 c5         1 ON3      -0.051100
     17 C32         -2.1720     1.8350    -1.7290 c5         1 ON3      -0.051100
     18 C38         -2.3880     3.7300    -0.2770 ca         1 ON3      -0.084300
     19 C39         -2.7230     3.2190    -1.5150 ca         1 ON3      -0.084300
     20 C40         -3.5060     3.9600    -2.4150 ca         1 ON3      -0.096000
     21 C41         -3.9440     5.2450    -2.0380 ca         1 ON3      -0.115500
     22 C42         -3.6010     5.7670    -0.7730 ca         1 ON3      -0.115500
     23 C43         -2.8180     5.0070     0.1180 ca         1 ON3      -0.096000
     24 C48          0.9230    -0.5400    -1.1280 c3         1 ON3       0.155600
     25 O51          1.6490    -0.5800     0.1190 os         1 ON3      -0.345100
     26 C52          5.8360    -0.3210     0.3990 ca         1 ON3       0.005700
     27 C53          5.0350    -0.4510     1.5490 ca         1 ON3      -0.068000
     28 C54          3.6360    -0.5370     1.4330 ca         1 ON3      -0.175500
     29 C55          3.0240    -0.4920     0.1710 ca         1 ON3       0.101100
     30 C56          3.8230    -0.3570    -0.9850 ca         1 ON3      -0.175500
     31 C57          5.2220    -0.2720    -0.8670 ca         1 ON3      -0.068000
     32 C62          7.3330    -0.2280     0.5220 cx         1 ON3      -0.194700
     33 C63          8.1080    -1.3080     1.2590 cx         1 ON3      -0.123900
     34 C64          8.2230    -1.1960    -0.2390 cx         1 ON3      -0.123900
     35 C69          7.8130     1.2110     0.6660 c          1 ON3       0.745000
     36 O70          7.9020     1.6800     1.7920 o          1 ON3      -0.722500
     37 O71          8.0670     1.8390    -0.3510 o          1 ON3      -0.722500
     38 H1          -3.1790    -1.6680    -1.7360 ha         1 ON3       0.120500
     39 H2          -2.0790    -2.4510     2.3300 ha         1 ON3       0.120500
     40 H3          -7.1050    -3.1550     1.2920 hc         1 ON3       0.040700
     41 H4          -6.8620    -1.8070     2.4140 hc         1 ON3       0.040700
     42 H5          -7.3120    -1.4820     0.7510 hc         1 ON3       0.040700
     43 H6          -6.4910    -1.2480    -3.2350 h1         1 ON3       0.039700
     44 H7          -4.9740    -0.4530    -2.7650 h1         1 ON3       0.039700
     45 H8          -4.9940    -2.1980    -3.1400 h1         1 ON3       0.039700
     46 H9          -4.1950    -2.9910     5.2700 h1         1 ON3       0.039700
     47 H10         -3.0480    -3.6950     4.1110 h1         1 ON3       0.039700
     48 H11         -3.0100    -1.9450     4.4610 h1         1 ON3       0.039700
     49 H12         -0.4030    -2.0340     0.8060 h1         1 ON3       0.112700
     50 H13         -1.1240    -3.9020    -0.5340 ho         1 ON3       0.489000
     51 H14         -1.1210    -0.6460    -1.8110 h1         1 ON3       0.030700
     52 H15         -0.0840     2.0670    -0.9680 h1         1 ON3       0.039700
     53 H16         -2.1610     2.2640     1.2950 hc         1 ON3       0.066200
     54 H17         -0.7150     3.2530     1.0380 hc         1 ON3       0.066200
     55 H18         -1.7380     1.6990    -2.7260 hc         1 ON3       0.066200
     56 H19         -2.9500     1.0750    -1.5910 hc         1 ON3       0.066200
     57 H20         -3.7690     3.5500    -3.3870 ha         1 ON3       0.113000
     58 H21         -4.5500     5.8330    -2.7230 ha         1 ON3       0.106500
     59 H22         -3.9420     6.7590    -0.4840 ha         1 ON3       0.106500
     60 H23         -2.5530     5.4030     1.0960 ha         1 ON3       0.113000
     61 H24          1.2330    -1.3710    -1.7750 h1         1 ON3       0.035700
     62 H25          1.1250     0.3930    -1.6680 h1         1 ON3       0.035700
     63 H28          3.3820    -0.3180    -1.9770 ha         1 ON3       0.098500
     64 H29          5.8320    -0.1660    -1.7610 ha         1 ON3       0.111000
     65 H30          8.9660    -1.0060     1.8550 hc         1 ON3       0.056950
     66 H31          7.5520    -2.1530     1.6590 hc         1 ON3       0.056950
     67 H32          7.7460    -1.9670    -0.8400 hc         1 ON3       0.056950
     68 H33          9.1590    -0.8200    -0.6460 hc         1 ON3       0.056950
     69 H26          5.4980    -0.4840     2.5320 ha         1 ON3       0.111000
     70 C13         -5.5570    -1.3790    -2.6750 c3         1 ON3       0.149400
     71 H27          3.0260    -0.6380     2.3270 ha         1 ON3       0.098500
@<TRIPOS>BOND
     1     1     2 ar  
     2     1     6 ar  
     3     1    11 1   
     4     2     3 ar  
     5     2    38 1   
     6     3     4 ar  
     7     3     8 1   
     8     4     5 ar  
     9     4     7 1   
    10     5     6 ar  
    11     5     9 1   
    12     6    39 1   
    13     7    40 1   
    14     7    41 1   
    15     7    42 1   
    16     8    70 1   
    17     9    10 1   
    18    10    46 1   
    19    10    47 1   
    20    10    48 1   
    21    11    12 1   
    22    11    13 1   
    23    11    49 1   
    24    12    50 1   
    25    13    14 1   
    26    13    24 1   
    27    13    51 1   
    28    14    15 1   
    29    15    16 1   
    30    15    17 1   
    31    15    52 1   
    32    16    18 1   
    33    16    53 1   
    34    16    54 1   
    35    17    19 1   
    36    17    55 1   
    37    17    56 1   
    38    18    19 ar  
    39    18    23 ar  
    40    19    20 ar  
    41    20    21 ar  
    42    20    57 1   
    43    21    22 ar  
    44    21    58 1   
    45    22    23 ar  
    46    22    59 1   
    47    23    60 1   
    48    24    25 1   
    49    24    61 1   
    50    24    62 1   
    51    25    29 1   
    52    26    27 ar  
    53    26    31 ar  
    54    26    32 1   
    55    27    28 ar  
    56    27    69 1   
    57    28    29 ar  
    58    28    71 1   
    59    29    30 ar  
    60    30    31 ar  
    61    30    63 1   
    62    31    64 1   
    63    32    33 1   
    64    32    34 1   
    65    32    35 1   
    66    33    34 1   
    67    33    65 1   
    68    33    66 1   
    69    34    67 1   
    70    34    68 1   
    71    35    36 1   
    72    35    37 1   
    73    43    70 1   
    74    44    70 1   
    75    45    70 1   
@<TRIPOS>SUBSTRUCTURE
     1 ON3         1 TEMP              0 ****  ****    0 ROOT
