@<TRIPOS>MOLECULE
ON4
  101   107     1     0     0
SMALL
abcg2


@<TRIPOS>ATOM
      1 C10        -15.8020   -20.5520    15.4650 c          1 ON4       0.587100
      2 C17        -19.2950   -17.5490    13.0560 cx         1 ON4       0.137000
      3 C20        -20.2560   -16.7050    13.8460 c3         1 ON4      -0.077100
      4 C21        -17.4570   -22.0730    16.5520 c3         1 ON4      -0.084400
      5 C22        -16.5360   -22.4840    17.7030 c3         1 ON4      -0.081400
      6 C24        -13.4790   -15.8730    15.8490 ca         1 ON4       0.550300
      7 C26        -11.7130   -14.5150    16.3120 ca         1 ON4       0.302000
      8 C01        -13.5070   -19.7710    15.5370 c5         1 ON4       0.030700
      9 C02        -12.7590   -18.8380    16.5020 c5         1 ON4      -0.106400
     10 C03        -13.8590   -17.9280    17.0400 c5         1 ON4       0.166300
     11 C04        -15.0460   -18.8620    17.1900 c5         1 ON4       0.105000
     12 C06        -12.9500   -21.1910    15.5460 c          1 ON4       0.587100
     13 C09        -11.9480   -22.9480    14.2090 cx         1 ON4      -0.078600
     14 C11        -17.2060   -20.6390    16.0800 c3         1 ON4       0.060700
     15 C18        -19.3150   -17.5470    11.5630 cx         1 ON4      -0.127900
     16 C19        -18.1390   -16.9610    12.3160 cx         1 ON4      -0.127900
     17 C27        -12.1300   -13.6400    15.2770 ca         1 ON4       0.167000
     18 C29        -13.9180   -15.0000    14.7890 ca         1 ON4       0.320300
     19 C30        -10.5610   -14.2220    17.0680 ca         1 ON4      -0.196000
     20 C31         -9.8430   -13.0750    16.7930 ca         1 ON4       0.161100
     21 C32        -10.2570   -12.1960    15.7630 ca         1 ON4      -0.137000
     22 C33        -11.3740   -12.4760    15.0220 ca         1 ON4      -0.030000
     23 C35         -8.2470   -13.5280    18.5130 c3         1 ON4       0.146900
     24 C36        -15.1370   -15.3370    13.9910 c3         1 ON4      -0.138400
     25 C37        -10.7260   -23.4740    14.8890 c          1 ON4       0.685100
     26 C43         -8.7470   -21.3400    17.5650 cx         1 ON4      -0.415000
     27 C44         -8.2330   -20.0990    16.8760 cx         1 ON4      -0.075900
     28 C45         -7.3890   -20.7800    17.9090 cx         1 ON4      -0.075900
     29 C46         -9.8860   -21.2640    18.5550 c3         1 ON4      -0.042100
     30 C47        -13.1740   -23.8780    14.0240 cx         1 ON4      -0.034500
     31 C48        -13.2760   -25.2340    14.5920 c2         1 ON4      -0.195200
     32 C49        -14.2700   -25.6480    15.3840 c2         1 ON4      -0.187200
     33 C50        -15.4180   -24.8370    15.9050 c3         1 ON4      -0.049200
     34 C51        -15.4480   -24.8080    17.4390 c3         1 ON4      -0.074400
     35 C52        -12.3000   -23.5350    12.8650 cx         1 ON4      -0.088400
     36 C53        -16.5930   -23.9850    18.0410 c3         1 ON4      -0.066400
     37 N05        -14.8770   -19.7830    16.0600 n          1 ON4      -0.389800
     38 N08        -12.2750   -21.5720    14.4320 ns         1 ON4      -0.471900
     39 N13        -18.1950   -20.2550    15.0860 ns         1 ON4      -0.477900
     40 N25        -12.4270   -15.6490    16.5770 nb         1 ON4      -0.750000
     41 N28        -13.2390   -13.9150    14.5320 nb         1 ON4      -0.613000
     42 N38        -10.0630   -22.5320    15.6420 ns         1 ON4      -0.579300
     43 O07        -13.0810   -21.9190    16.5190 o          1 ON4      -0.572100
     44 O12        -15.5320   -21.2110    14.4570 o          1 ON4      -0.630100
     45 O15        -19.0980   -18.8580    13.6050 os         1 ON4      -0.434100
     46 O16        -17.7390   -18.0290    15.2390 o          1 ON4      -0.541000
     47 O23        -14.2490   -16.9560    16.0450 os         1 ON4      -0.453300
     48 O34         -8.7220   -12.6950    17.4540 os         1 ON4      -0.344100
     49 O39        -10.3470   -24.6270    14.7910 o          1 ON4      -0.547100
     50 O41         -9.0040   -23.9660    17.4360 o          1 ON4      -0.523500
     51 O42         -7.5420   -22.8690    15.7720 o          1 ON4      -0.523500
     52 S40         -8.7220   -22.8230    16.6030 s6         1 ON4       1.283800
     53 H202       -19.8670   -16.5000    14.8430 hc         1 ON4       0.053033
     54 H201       -20.4190   -15.7560    13.3350 hc         1 ON4       0.053033
     55 H203       -21.2190   -17.2140    13.9400 hc         1 ON4       0.053033
     56 H211       -18.5000   -22.1470    16.8710 hc         1 ON4       0.059200
     57 H212       -17.3320   -22.7410    15.6980 hc         1 ON4       0.059200
     58 H222       -15.5020   -22.2170    17.4670 hc         1 ON4       0.049200
     59 H221       -16.8090   -21.8950    18.5820 hc         1 ON4       0.049200
     60 H011       -13.5070   -19.3730    14.5210 h1         1 ON4       0.075700
     61 H021       -12.3470   -19.4100    17.3330 hc         1 ON4       0.076700
     62 H022       -11.9550   -18.2940    16.0160 hc         1 ON4       0.076700
     63 H031       -13.5930   -17.4200    17.9620 h1         1 ON4       0.090700
     64 H042       -15.9900   -18.3290    17.1220 h1         1 ON4       0.081200
     65 H041       -14.9850   -19.3920    18.1430 h1         1 ON4       0.081200
     66 H111       -17.3030   -19.9610    16.9240 h1         1 ON4       0.081700
     67 H182       -20.0080   -16.8750    11.0760 hc         1 ON4       0.083200
     68 H181       -19.1630   -18.4950    11.0650 hc         1 ON4       0.083200
     69 H191       -17.2160   -17.5250    12.3110 hc         1 ON4       0.083200
     70 H192       -18.0180   -15.8870    12.3460 hc         1 ON4       0.083200
     71 H301       -10.2720   -14.9110    17.8470 ha         1 ON4       0.133000
     72 H321        -9.6700   -11.3060    15.5780 ha         1 ON4       0.136000
     73 H331       -11.6980   -11.8110    14.2310 ha         1 ON4       0.136000
     74 H352        -7.3510   -13.0440    18.8930 h1         1 ON4       0.045700
     75 H351        -8.9910   -13.6080    19.3090 h1         1 ON4       0.045700
     76 H353        -8.0000   -14.5250    18.1420 h1         1 ON4       0.045700
     77 H363       -15.3120   -14.5660    13.2440 hc         1 ON4       0.061700
     78 H361       -15.0200   -16.3020    13.4930 hc         1 ON4       0.061700
     79 H362       -16.0140   -15.4230    14.6360 hc         1 ON4       0.061700
     80 H442        -7.9170   -20.1770    15.8450 hc         1 ON4       0.088950
     81 H441        -8.7470   -19.1840    17.1360 hc         1 ON4       0.088950
     82 H451        -6.5130   -21.3110    17.5660 hc         1 ON4       0.088950
     83 H452        -7.3140   -20.3430    18.8950 hc         1 ON4       0.088950
     84 H461        -9.8290   -20.3080    19.0760 hc         1 ON4       0.054033
     85 H462       -10.8540   -21.3230    18.0580 hc         1 ON4       0.054033
     86 H463        -9.8190   -22.0650    19.2900 hc         1 ON4       0.054033
     87 H471       -14.0730   -23.2830    14.0920 hc         1 ON4       0.103700
     88 H481       -12.4950   -25.9330    14.3240 ha         1 ON4       0.192000
     89 H491       -14.2460   -26.6840    15.7150 ha         1 ON4       0.169000
     90 H502       -15.3760   -23.8200    15.5190 hc         1 ON4       0.048200
     91 H501       -16.3600   -25.2730    15.5490 hc         1 ON4       0.048200
     92 H512       -15.5110   -25.8360    17.8110 hc         1 ON4       0.047700
     93 H511       -14.4970   -24.4040    17.8000 hc         1 ON4       0.047700
     94 H521       -11.6230   -24.2990    12.5040 hc         1 ON4       0.088700
     95 H522       -12.6720   -22.8440    12.1210 hc         1 ON4       0.088700
     96 H531       -17.5530   -24.4010    17.7180 hc         1 ON4       0.038200
     97 H532       -16.5570   -24.1090    19.1260 hc         1 ON4       0.038200
     98 H081       -12.2720   -20.9500    13.6360 hn         1 ON4       0.321500
     99 H131       -18.5310   -20.9650    14.4540 hn         1 ON4       0.333500
    100 H381       -10.3350   -21.5620    15.5470 hn         1 ON4       0.337500
    101 C14        -18.2920   -18.9650    14.6870 c          1 ON4       0.633100
@<TRIPOS>BOND
     1     1    14 1   
     2     1    37 1   
     3     1    44 2   
     4     2     3 1   
     5     2    15 1   
     6     2    16 1   
     7     2    45 1   
     8     3    53 1   
     9     3    54 1   
    10     3    55 1   
    11     4     5 1   
    12     4    14 1   
    13     4    56 1   
    14     4    57 1   
    15     5    36 1   
    16     5    58 1   
    17     5    59 1   
    18     6    18 ar  
    19     6    40 ar  
    20     6    47 1   
    21     7    17 ar  
    22     7    19 ar  
    23     7    40 ar  
    24     8     9 1   
    25     8    12 1   
    26     8    37 1   
    27     8    60 1   
    28     9    10 1   
    29     9    61 1   
    30     9    62 1   
    31    10    11 1   
    32    10    47 1   
    33    10    63 1   
    34    11    37 1   
    35    11    64 1   
    36    11    65 1   
    37    12    38 1   
    38    12    43 2   
    39    13    25 1   
    40    13    30 1   
    41    13    35 1   
    42    13    38 1   
    43    14    39 1   
    44    14    66 1   
    45    15    16 1   
    46    15    67 1   
    47    15    68 1   
    48    16    69 1   
    49    16    70 1   
    50    17    22 ar  
    51    17    41 ar  
    52    18    24 1   
    53    18    41 ar  
    54    19    20 ar  
    55    19    71 1   
    56    20    21 ar  
    57    20    48 1   
    58    21    22 ar  
    59    21    72 1   
    60    22    73 1   
    61    23    48 1   
    62    23    74 1   
    63    23    75 1   
    64    23    76 1   
    65    24    77 1   
    66    24    78 1   
    67    24    79 1   
    68    25    42 1   
    69    25    49 2   
    70    26    27 1   
    71    26    28 1   
    72    26    29 1   
    73    26    52 1   
    74    27    28 1   
    75    27    80 1   
    76    27    81 1   
    77    28    82 1   
    78    28    83 1   
    79    29    84 1   
    80    29    85 1   
    81    29    86 1   
    82    30    31 1   
    83    30    35 1   
    84    30    87 1   
    85    31    32 2   
    86    31    88 1   
    87    32    33 1   
    88    32    89 1   
    89    33    34 1   
    90    33    90 1   
    91    33    91 1   
    92    34    36 1   
    93    34    92 1   
    94    34    93 1   
    95    35    94 1   
    96    35    95 1   
    97    36    96 1   
    98    36    97 1   
    99    38    98 1   
   100    39    99 1   
   101    39   101 1   
   102    42    52 1   
   103    42   100 1   
   104    45   101 1   
   105    46   101 2   
   106    50    52 2   
   107    51    52 2   
@<TRIPOS>SUBSTRUCTURE
     1 ON4         1 TEMP              0 ****  ****    0 ROOT
