@<TRIPOS>MOLECULE
ON4
  101   107     1     0     0
SMALL
No Charge or Current Charge


@<TRIPOS>ATOM
      1 C10        -15.8160   -19.8680    15.0910 c          1 ON4       0.587100
      2 C17        -21.4720   -18.7360    13.4490 cx         1 ON4       0.137000
      3 C20        -22.4000   -19.9060    13.7570 c3         1 ON4      -0.077100
      4 C21        -17.5420   -21.3710    16.2570 c3         1 ON4      -0.084400
      5 C22        -16.6530   -21.7620    17.4660 c3         1 ON4      -0.081400
      6 C24        -12.4740   -15.8320    15.6050 ca         1 ON4       0.550300
      7 C26        -10.7800   -14.5860    16.5770 ca         1 ON4       0.302000
      8 C01        -13.3640   -19.4710    15.5650 c5         1 ON4       0.030700
      9 C02        -12.6810   -18.6050    16.6710 c5         1 ON4      -0.106400
     10 C03        -13.6860   -17.4320    16.8610 c5         1 ON4       0.166300
     11 C04        -15.0530   -18.1740    16.8350 c5         1 ON4       0.105000
     12 C06        -12.9120   -20.9540    15.7330 c          1 ON4       0.587100
     13 C09        -12.0150   -22.8330    14.3710 cx         1 ON4      -0.078600
     14 C11        -17.2650   -19.9630    15.6620 c3         1 ON4       0.060700
     15 C18        -21.7970   -17.7430    12.3600 cx         1 ON4      -0.127900
     16 C19        -21.8260   -17.3130    13.8100 cx         1 ON4      -0.127900
     17 C27        -10.2150   -14.3340    15.2810 ca         1 ON4       0.167000
     18 C29        -11.9170   -15.5590    14.3120 ca         1 ON4       0.320300
     19 C30        -10.1560   -14.0600    17.7200 ca         1 ON4      -0.196000
     20 C31         -8.9810   -13.2900    17.6100 ca         1 ON4       0.161100
     21 C32         -8.4310   -13.0450    16.3450 ca         1 ON4      -0.137000
     22 C33         -9.0430   -13.5630    15.1910 ca         1 ON4      -0.030000
     23 C35         -8.8150   -12.9470    20.0500 c3         1 ON4       0.146900
     24 C36        -12.5510   -16.0980    13.0360 c3         1 ON4      -0.138400
     25 C37        -11.0380   -23.4920    15.3640 c          1 ON4       0.685100
     26 C43         -8.1320   -21.2450    17.1040 cx         1 ON4      -0.415000
     27 C44         -7.1750   -20.6370    16.0940 cx         1 ON4      -0.075900
     28 C45         -6.6620   -21.0800    17.4470 cx         1 ON4      -0.075900
     29 C46         -9.1760   -20.3540    17.7910 c3         1 ON4      -0.042100
     30 C47        -13.1820   -23.5920    13.7520 cx         1 ON4      -0.034500
     31 C48        -13.5830   -24.9430    14.2450 c2         1 ON4      -0.195200
     32 C49        -14.6250   -25.2030    15.0580 c2         1 ON4      -0.187200
     33 C50        -15.6170   -24.1990    15.6300 c3         1 ON4      -0.049200
     34 C51        -15.6120   -24.1610    17.1750 c3         1 ON4      -0.074400
     35 C52        -11.9270   -23.3540    12.9500 cx         1 ON4      -0.088400
     36 C53        -16.7030   -23.2700    17.8330 c3         1 ON4      -0.066400
     37 N05        -14.8040   -19.2820    15.8800 n          1 ON4      -0.389800
     38 N08        -12.3170   -21.4230    14.5770 ns         1 ON4      -0.471900
     39 N13        -18.2310   -19.6770    14.5840 ns         1 ON4      -0.477900
     40 N25        -11.9090   -15.3250    16.7350 nb         1 ON4      -0.750000
     41 N28        -10.7870   -14.8190    14.1460 nb         1 ON4      -0.613000
     42 N38        -10.0050   -22.6810    15.6880 ns         1 ON4      -0.579300
     43 O07        -13.0350   -21.6420    16.7370 o          1 ON4      -0.572100
     44 O12        -15.5330   -20.3630    14.0040 o          1 ON4      -0.630100
     45 O15        -20.1220   -19.1340    13.5560 os         1 ON4      -0.434100
     46 O16        -20.0330   -19.0510    15.8600 o          1 ON4      -0.541000
     47 O23        -13.6500   -16.5690    15.6810 os         1 ON4      -0.453300
     48 O34         -8.3360   -12.7550    18.7060 os         1 ON4      -0.344100
     49 O39        -11.1440   -24.6290    15.8000 o          1 ON4      -0.547100
     50 O41         -9.4090   -23.4660    18.0330 o          1 ON4      -0.523500
     51 O42         -7.7610   -23.7520    16.1180 o          1 ON4      -0.523500
     52 S40         -8.8020   -22.9690    16.7940 s6         1 ON4       1.283800
     53 H202       -22.3300   -20.2020    14.8100 hc         1 ON4       0.053033
     54 H201       -23.4460   -19.6450    13.5570 hc         1 ON4       0.053033
     55 H203       -22.1490   -20.7760    13.1400 hc         1 ON4       0.053033
     56 H211       -18.5910   -21.4270    16.5730 hc         1 ON4       0.059200
     57 H212       -17.4330   -22.1090    15.4550 hc         1 ON4       0.059200
     58 H222       -15.6110   -21.4800    17.2900 hc         1 ON4       0.049200
     59 H221       -16.9830   -21.1760    18.3330 hc         1 ON4       0.049200
     60 H011       -13.1320   -19.1040    14.5560 h1         1 ON4       0.075700
     61 H021       -12.5830   -19.1570    17.6140 hc         1 ON4       0.076700
     62 H022       -11.6710   -18.2850    16.3920 hc         1 ON4       0.076700
     63 H031       -13.5510   -16.8570    17.7890 h1         1 ON4       0.090700
     64 H042       -15.8610   -17.5080    16.5060 h1         1 ON4       0.081200
     65 H041       -15.3090   -18.5680    17.8280 h1         1 ON4       0.081200
     66 H111       -17.3930   -19.2120    16.4500 h1         1 ON4       0.081700
     67 H182       -22.7480   -17.8470    11.8430 hc         1 ON4       0.083200
     68 H181       -20.9780   -17.3870    11.7410 hc         1 ON4       0.083200
     69 H191       -21.0280   -16.6660    14.1640 hc         1 ON4       0.083200
     70 H192       -22.7950   -17.1330    14.2680 hc         1 ON4       0.083200
     71 H301       -10.6020   -14.2640    18.6880 ha         1 ON4       0.133000
     72 H321        -7.5250   -12.4510    16.2570 ha         1 ON4       0.136000
     73 H331        -8.6050   -13.3640    14.2160 ha         1 ON4       0.136000
     74 H352        -8.1540   -12.4400    20.7640 h1         1 ON4       0.045700
     75 H351        -9.8240   -12.5330    20.1670 h1         1 ON4       0.045700
     76 H353        -8.8380   -14.0140    20.3080 h1         1 ON4       0.045700
     77 H363       -12.0510   -15.7180    12.1370 hc         1 ON4       0.061700
     78 H361       -12.4990   -17.1930    13.0100 hc         1 ON4       0.061700
     79 H362       -13.6070   -15.8110    12.9750 hc         1 ON4       0.061700
     80 H442        -6.8830   -21.2290    15.2280 hc         1 ON4       0.088950
     81 H441        -7.2350   -19.5670    15.9040 hc         1 ON4       0.088950
     82 H451        -6.0320   -21.9670    17.4810 hc         1 ON4       0.088950
     83 H452        -6.3820   -20.3050    18.1580 hc         1 ON4       0.088950
     84 H461        -8.7900   -19.3400    17.9590 hc         1 ON4       0.054033
     85 H462       -10.0860   -20.2590    17.1870 hc         1 ON4       0.054033
     86 H463        -9.4640   -20.7580    18.7700 hc         1 ON4       0.054033
     87 H471       -14.0360   -22.9950    13.4380 hc         1 ON4       0.103700
     88 H481       -12.9540   -25.7680    13.9040 ha         1 ON4       0.192000
     89 H491       -14.8240   -26.2340    15.3580 ha         1 ON4       0.169000
     90 H502       -15.4040   -23.1910    15.2580 hc         1 ON4       0.048200
     91 H501       -16.6270   -24.4530    15.2830 hc         1 ON4       0.048200
     92 H512       -15.7370   -25.1840    17.5500 hc         1 ON4       0.047700
     93 H511       -14.6240   -23.8290    17.5170 hc         1 ON4       0.047700
     94 H521       -11.2810   -24.2070    12.7560 hc         1 ON4       0.088700
     95 H522       -11.9740   -22.6340    12.1370 hc         1 ON4       0.088700
     96 H531       -17.6980   -23.6740    17.6040 hc         1 ON4       0.038200
     97 H532       -16.5860   -23.3580    18.9200 hc         1 ON4       0.038200
     98 H081       -12.2700   -20.7810    13.7930 hn         1 ON4       0.321500
     99 H131       -17.9440   -19.8140    13.6220 hn         1 ON4       0.333500
    100 H381        -9.9550   -21.7610    15.2900 hn         1 ON4       0.337500
    101 C14        -19.5190   -19.2670    14.7730 c          1 ON4       0.633100
@<TRIPOS>BOND
     1     1    14 1   
     2     1    37 1   
     3     1    44 2   
     4     2     3 1   
     5     2    15 1   
     6     2    16 1   
     7     2    45 1   
     8     3    53 1   
     9     3    54 1   
    10     3    55 1   
    11     4     5 1   
    12     4    14 1   
    13     4    56 1   
    14     4    57 1   
    15     5    36 1   
    16     5    58 1   
    17     5    59 1   
    18     6    18 ar  
    19     6    40 ar  
    20     6    47 1   
    21     7    17 ar  
    22     7    19 ar  
    23     7    40 ar  
    24     8     9 1   
    25     8    12 1   
    26     8    37 1   
    27     8    60 1   
    28     9    10 1   
    29     9    61 1   
    30     9    62 1   
    31    10    11 1   
    32    10    47 1   
    33    10    63 1   
    34    11    37 1   
    35    11    64 1   
    36    11    65 1   
    37    12    38 1   
    38    12    43 2   
    39    13    25 1   
    40    13    30 1   
    41    13    35 1   
    42    13    38 1   
    43    14    39 1   
    44    14    66 1   
    45    15    16 1   
    46    15    67 1   
    47    15    68 1   
    48    16    69 1   
    49    16    70 1   
    50    17    22 ar  
    51    17    41 ar  
    52    18    24 1   
    53    18    41 ar  
    54    19    20 ar  
    55    19    71 1   
    56    20    21 ar  
    57    20    48 1   
    58    21    22 ar  
    59    21    72 1   
    60    22    73 1   
    61    23    48 1   
    62    23    74 1   
    63    23    75 1   
    64    23    76 1   
    65    24    77 1   
    66    24    78 1   
    67    24    79 1   
    68    25    42 1   
    69    25    49 2   
    70    26    27 1   
    71    26    28 1   
    72    26    29 1   
    73    26    52 1   
    74    27    28 1   
    75    27    80 1   
    76    27    81 1   
    77    28    82 1   
    78    28    83 1   
    79    29    84 1   
    80    29    85 1   
    81    29    86 1   
    82    30    31 1   
    83    30    35 1   
    84    30    87 1   
    85    31    32 2   
    86    31    88 1   
    87    32    33 1   
    88    32    89 1   
    89    33    34 1   
    90    33    90 1   
    91    33    91 1   
    92    34    36 1   
    93    34    92 1   
    94    34    93 1   
    95    35    94 1   
    96    35    95 1   
    97    36    96 1   
    98    36    97 1   
    99    38    98 1   
   100    39    99 1   
   101    39   101 1   
   102    42    52 1   
   103    42   100 1   
   104    45   101 1   
   105    46   101 2   
   106    50    52 2   
   107    51    52 2   
@<TRIPOS>SUBSTRUCTURE
     1 ON4         1 TEMP              0 ****  ****    0 ROOT
