@<TRIPOS>MOLECULE
ON5
   57    57     1     0     0
SMALL
No Charge or Current Charge


@<TRIPOS>ATOM
      1 C20          5.2610     5.6900    -0.1980 c3         1 ON5      -0.088100
      2 C19          4.9400     4.4120     0.6000 c3         1 ON5      -0.075400
      3 C18          4.2460     3.3250    -0.2500 c3         1 ON5      -0.076400
      4 C17          3.9270     2.0430     0.5500 c3         1 ON5      -0.072400
      5 C16          3.2230     0.9590    -0.3000 c3         1 ON5      -0.106400
      6 C15          2.8810    -0.3270     0.4870 c3         1 ON5       0.199500
      7 O15          4.0790    -1.0140     0.8400 oh         1 ON5      -0.652000
      8 C14          2.0320    -1.2840    -0.3140 c2         1 ON5      -0.247200
      9 C13          1.1570    -2.1600     0.2100 c2         1 ON5      -0.209200
     10 C12          0.3110    -3.0360    -0.7160 c5         1 ON5      -0.032500
     11 C11          0.2920    -4.5170    -0.1870 c5         1 ON5       0.168300
     12 O11          0.8910    -5.4080    -1.1270 oh         1 ON5      -0.656000
     13 C10         -1.2180    -4.8400     0.0020 c5         1 ON5      -0.128400
     14 C9          -1.9090    -3.8710    -0.9860 c5         1 ON5       0.154300
     15 Cl9         -3.7170    -3.8340    -0.7980 cl         1 ON5      -0.296000
     16 C8          -1.1700    -2.5550    -0.6230 c5         1 ON5      -0.054700
     17 C7          -1.4850    -1.3310    -1.5230 c3         1 ON5      -0.028200
     18 C6          -2.7600    -0.6030    -1.1380 c2         1 ON5      -0.259200
     19 C5          -2.8760     0.3990    -0.2490 c2         1 ON5      -0.171200
     20 C4          -1.7670     1.0170     0.5870 c3         1 ON5      -0.061200
     21 C3          -1.4710     2.4710     0.1650 c3         1 ON5      -0.049400
     22 C2          -0.3190     3.1270     0.9650 c3         1 ON5      -0.205400
     23 C1          -0.1800     4.6080     0.5660 c          1 ON5       0.717000
     24 O1A         -0.8290     5.4350     1.1880 o          1 ON5      -0.742500
     25 O1B          0.5240     4.8850    -0.3930 o          1 ON5      -0.742500
     26 H1           5.7500     6.4300     0.4460 hc         1 ON5       0.029367
     27 H2           5.9330     5.4660    -1.0350 hc         1 ON5       0.029367
     28 H3           4.3440     6.1380    -0.5990 hc         1 ON5       0.029367
     29 H4           5.8710     4.0090     1.0170 hc         1 ON5       0.037700
     30 H5           4.2960     4.6750     1.4490 hc         1 ON5       0.037700
     31 H6           3.3150     3.7320    -0.6650 hc         1 ON5       0.036200
     32 H7           4.8900     3.0680    -1.1010 hc         1 ON5       0.036200
     33 H8           4.8600     1.6370     0.9600 hc         1 ON5       0.044700
     34 H9           3.2880     2.3010     1.4030 hc         1 ON5       0.044700
     35 H10          2.2940     1.3790    -0.7040 hc         1 ON5       0.043700
     36 H11          3.8530     0.7030    -1.1620 hc         1 ON5       0.043700
     37 H12          2.3230    -0.0380     1.3910 h1         1 ON5       0.088700
     38 H13          3.8110    -1.9380     1.0300 ho         1 ON5       0.433000
     39 H14          2.1620    -1.2020    -1.3950 ha         1 ON5       0.181000
     40 H15          1.0280    -2.2200     1.2930 ha         1 ON5       0.172000
     41 H16          0.6680    -2.9970    -1.7530 hc         1 ON5       0.080700
     42 H17          0.8130    -4.6030     0.7780 h1         1 ON5       0.039700
     43 H18          0.9300    -6.2900    -0.6960 ho         1 ON5       0.437000
     44 H19         -1.4620    -5.8880    -0.2060 hc         1 ON5       0.057700
     45 H20         -1.5330    -4.6410     1.0330 hc         1 ON5       0.057700
     46 H21         -1.7300    -4.1620    -2.0310 h1         1 ON5       0.081700
     47 H22         -1.4130    -2.2570     0.4050 hc         1 ON5       0.076700
     48 H23         -0.6450    -0.6280    -1.4820 hc         1 ON5       0.052200
     49 H24         -1.5370    -1.6430    -2.5740 hc         1 ON5       0.052200
     50 H25         -3.6460    -0.9530    -1.6700 ha         1 ON5       0.155000
     51 H26         -3.8580     0.8420    -0.0670 ha         1 ON5       0.160000
     52 H27         -2.0590     1.0030     1.6440 hc         1 ON5       0.033700
     53 H28         -0.8440     0.4310     0.5220 hc         1 ON5       0.033700
     54 H29         -1.2220     2.4910    -0.9040 hc         1 ON5       0.040700
     55 H30         -2.3830     3.0690     0.2890 hc         1 ON5       0.040700
     56 H31         -0.5940     3.0400     2.0240 hc         1 ON5       0.014700
     57 H32          0.5860     2.5680     0.6980 hc         1 ON5       0.014700
@<TRIPOS>BOND
     1     1     2 1   
     2     1    26 1   
     3     1    27 1   
     4     1    28 1   
     5     2     3 1   
     6     2    29 1   
     7     2    30 1   
     8     3     4 1   
     9     3    31 1   
    10     3    32 1   
    11     4     5 1   
    12     4    33 1   
    13     4    34 1   
    14     5     6 1   
    15     5    35 1   
    16     5    36 1   
    17     6     7 1   
    18     6     8 1   
    19     6    37 1   
    20     7    38 1   
    21     8     9 2   
    22     8    39 1   
    23     9    10 1   
    24     9    40 1   
    25    10    11 1   
    26    10    16 1   
    27    10    41 1   
    28    11    12 1   
    29    11    13 1   
    30    11    42 1   
    31    12    43 1   
    32    13    14 1   
    33    13    44 1   
    34    13    45 1   
    35    14    15 1   
    36    14    16 1   
    37    14    46 1   
    38    16    17 1   
    39    16    47 1   
    40    17    18 1   
    41    17    48 1   
    42    17    49 1   
    43    18    19 2   
    44    18    50 1   
    45    19    20 1   
    46    19    51 1   
    47    20    21 1   
    48    20    52 1   
    49    20    53 1   
    50    21    22 1   
    51    21    54 1   
    52    21    55 1   
    53    22    23 1   
    54    22    56 1   
    55    22    57 1   
    56    23    24 1   
    57    23    25 1   
@<TRIPOS>SUBSTRUCTURE
     1 ON5         1 TEMP              0 ****  ****    0 ROOT
