@<TRIPOS>MOLECULE
ON5
   57    57     1     0     0
SMALL
abcg2


@<TRIPOS>ATOM
      1 C20          8.2750     4.0760    -0.4340 c3         1 ON5      -0.088100
      2 C19          7.2740     3.3510     0.4540 c3         1 ON5      -0.075400
      3 C18          6.2390     2.5610    -0.3380 c3         1 ON5      -0.076400
      4 C17          5.2160     1.8610     0.5480 c3         1 ON5      -0.072400
      5 C16          4.1800     1.0770    -0.2480 c3         1 ON5      -0.106400
      6 C15          3.0670     0.4800     0.6150 c3         1 ON5       0.199500
      7 O15          3.5650    -0.3850     1.6100 oh         1 ON5      -0.652000
      8 C14          2.0120    -0.1570    -0.2450 c2         1 ON5      -0.247200
      9 C13          1.5100    -1.3770    -0.0870 c2         1 ON5      -0.209200
     10 C12          0.4420    -1.9570    -0.9610 c5         1 ON5      -0.032500
     11 C11          0.8030    -3.3700    -1.4460 c5         1 ON5       0.168300
     12 O11          0.1550    -3.5650    -2.6870 oh         1 ON5      -0.656000
     13 C10          0.2180    -4.2710    -0.3650 c5         1 ON5      -0.128400
     14 C9          -1.1400    -3.6370    -0.1250 c5         1 ON5       0.154300
     15 CL9         -1.8600    -4.1710     1.4410 cl         1 ON5      -0.296000
     16 C8          -0.9000    -2.1210    -0.1820 c5         1 ON5      -0.054700
     17 C7          -2.0390    -1.3350    -0.8350 c3         1 ON5      -0.028200
     18 C6          -3.3550    -1.4740    -0.1320 c2         1 ON5      -0.259200
     19 C5          -3.9480    -0.5550     0.6290 c2         1 ON5      -0.171200
     20 C4          -3.4410     0.8140     0.9600 c3         1 ON5      -0.061200
     21 C3          -4.2260     1.9210     0.2520 c3         1 ON5      -0.049400
     22 C2          -3.7620     3.3080     0.6650 c3         1 ON5      -0.205400
     23 C1          -4.5030     4.4910     0.0170 c          1 ON5       0.717000
     24 O1A         -5.4880     4.2390    -0.7040 o          1 ON5      -0.742500
     25 O1B         -4.0540     5.6270     0.2820 o          1 ON5      -0.742500
     26 H1           8.9930     4.6480     0.1550 hc         1 ON5       0.029367
     27 H2           8.8400     3.3730    -1.0480 hc         1 ON5       0.029367
     28 H3           7.7730     4.7720    -1.1100 hc         1 ON5       0.029367
     29 H4           7.8060     2.6740     1.1290 hc         1 ON5       0.037700
     30 H5           6.7610     4.0750     1.0950 hc         1 ON5       0.037700
     31 H6           5.7200     3.2360    -1.0280 hc         1 ON5       0.036200
     32 H7           6.7500     1.8220    -0.9650 hc         1 ON5       0.036200
     33 H8           5.7350     1.1940     1.2420 hc         1 ON5       0.044700
     34 H9           4.7050     2.6080     1.1660 hc         1 ON5       0.044700
     35 H10          3.7170     1.7370    -0.9880 hc         1 ON5       0.043700
     36 H11          4.6670     0.2770    -0.8180 hc         1 ON5       0.043700
     37 H12          2.5950     1.3080     1.1610 h1         1 ON5       0.088700
     38 H13          4.0480    -1.0950     1.1730 ho         1 ON5       0.433000
     39 H14          1.6420     0.4650    -1.0570 ha         1 ON5       0.181000
     40 H15          1.8550    -1.9960     0.7370 ha         1 ON5       0.172000
     41 H16          0.3060    -1.2960    -1.8220 hc         1 ON5       0.080700
     42 H17          1.8880    -3.5030    -1.5440 h1         1 ON5       0.039700
     43 H18          0.2600    -4.4870    -2.9420 ho         1 ON5       0.437000
     44 H19          0.1610    -5.3230    -0.6500 hc         1 ON5       0.057700
     45 H20          0.8310    -4.2110     0.5390 hc         1 ON5       0.057700
     46 H21         -1.8520    -3.9510    -0.8870 h1         1 ON5       0.081700
     47 H22         -0.7660    -1.7490     0.8370 hc         1 ON5       0.076700
     48 H23         -1.7400    -0.2870    -0.8940 hc         1 ON5       0.052200
     49 H24         -2.1480    -1.6820    -1.8680 hc         1 ON5       0.052200
     50 H25         -3.8670    -2.4220    -0.2690 ha         1 ON5       0.155000
     51 H26         -4.9170    -0.8040     1.0540 ha         1 ON5       0.160000
     52 H27         -3.5190     0.9630     2.0430 hc         1 ON5       0.033700
     53 H28         -2.3790     0.9100     0.7190 hc         1 ON5       0.033700
     54 H29         -4.1190     1.7950    -0.8290 hc         1 ON5       0.040700
     55 H30         -5.2920     1.8050     0.4670 hc         1 ON5       0.040700
     56 H31         -3.8490     3.4100     1.7540 hc         1 ON5       0.014700
     57 H32         -2.6910     3.4150     0.4590 hc         1 ON5       0.014700
@<TRIPOS>BOND
     1     1     2 1   
     2     1    26 1   
     3     1    27 1   
     4     1    28 1   
     5     2     3 1   
     6     2    29 1   
     7     2    30 1   
     8     3     4 1   
     9     3    31 1   
    10     3    32 1   
    11     4     5 1   
    12     4    33 1   
    13     4    34 1   
    14     5     6 1   
    15     5    35 1   
    16     5    36 1   
    17     6     7 1   
    18     6     8 1   
    19     6    37 1   
    20     7    38 1   
    21     8     9 2   
    22     8    39 1   
    23     9    10 1   
    24     9    40 1   
    25    10    11 1   
    26    10    16 1   
    27    10    41 1   
    28    11    12 1   
    29    11    13 1   
    30    11    42 1   
    31    12    43 1   
    32    13    14 1   
    33    13    44 1   
    34    13    45 1   
    35    14    15 1   
    36    14    16 1   
    37    14    46 1   
    38    16    17 1   
    39    16    47 1   
    40    17    18 1   
    41    17    48 1   
    42    17    49 1   
    43    18    19 2   
    44    18    50 1   
    45    19    20 1   
    46    19    51 1   
    47    20    21 1   
    48    20    52 1   
    49    20    53 1   
    50    21    22 1   
    51    21    54 1   
    52    21    55 1   
    53    22    23 1   
    54    22    56 1   
    55    22    57 1   
    56    23    24 1   
    57    23    25 1   
@<TRIPOS>SUBSTRUCTURE
     1 ON5         1 TEMP              0 ****  ****    0 ROOT
