@<TRIPOS>MOLECULE
ON6
   48    51     1     0     0
SMALL
bcc


@<TRIPOS>ATOM
      1 O3          22.3940     3.1990    16.6710 o          1 ON6      -0.218500
      2 N2          22.0610     4.2320    16.1060 no         1 ON6       0.326200
      3 O4          21.4690     5.1170    16.6670 o          1 ON6      -0.218500
      4 C14         22.3980     4.3820    14.7160 ca         1 ON6      -0.306200
      5 C15         21.9780     5.5440    14.0670 ca         1 ON6       0.003000
      6 C13         23.1190     3.3810    14.0380 ca         1 ON6       0.256100
      7 O2          23.5650     2.2580    14.5710 oh         1 ON6      -0.472100
      8 C12         23.3790     3.5910    12.6770 ca         1 ON6      -0.197000
      9 C11         22.9550     4.7300    12.0470 ca         1 ON6      -0.019000
     10 C10         22.2640     5.7520    12.7290 ca         1 ON6      -0.124800
     11 C9          21.8960     6.9300    11.9620 ce         1 ON6      -0.007200
     12 C8          21.6870     8.2000    12.3520 cd         1 ON6      -0.105600
     13 S2          21.6990     8.7030    14.0320 ss         1 ON6      -0.122500
     14 C7          21.3380     9.1950    11.3000 c          1 ON6       0.727700
     15 O1          20.9460     8.8580    10.2000 o          1 ON6      -0.603500
     16 N1          21.4900    10.5130    11.6040 ns         1 ON6      -0.467100
     17 C2          22.0600    11.0880    12.7280 ca         1 ON6       0.067600
     18 C3          22.4430    12.4230    12.6910 ca         1 ON6      -0.078000
     19 C1          22.2290    10.3640    13.9080 ca         1 ON6       0.004900
     20 C6          22.7590    10.9740    15.0380 ca         1 ON6      -0.094000
     21 C5          23.1050    12.3130    15.0180 ca         1 ON6      -0.047000
     22 C4          22.9380    13.0210    13.8380 ca         1 ON6      -0.228500
     23 S1          23.3030    14.7550    13.8050 sy         1 ON6       1.072300
     24 O6          23.7560    15.1170    12.4660 o          1 ON6      -0.581300
     25 O5          24.1440    15.0590    14.9560 o          1 ON6      -0.581300
     26 C16         21.6810    15.5360    14.0360 c3         1 ON6      -0.122300
     27 C20         21.1920    15.4240    15.4390 ca         1 ON6      -0.059300
     28 C21         21.5710    16.3540    16.4130 ca         1 ON6       0.046400
     29 CL2         22.5790    17.6940    15.9890 cl         1 ON6      -0.090900
     30 C22         21.1450    16.2650    17.7270 ca         1 ON6      -0.118500
     31 C17         20.3130    15.2230    18.1000 ca         1 ON6      -0.103000
     32 C18         19.8990    14.2900    17.1660 ca         1 ON6      -0.118500
     33 C19         20.3360    14.4010    15.8560 ca         1 ON6       0.046400
     34 CL1         19.7530    13.2330    14.7210 cl         1 ON6      -0.090900
     35 H5          21.3810     6.2460    14.6290 ha         1 ON6       0.174000
     36 H13         23.2980     2.2190    15.5090 ho         1 ON6       0.484000
     37 H4          23.9190     2.8280    12.1310 ha         1 ON6       0.166000
     38 H3          23.1660     4.8510    10.9920 ha         1 ON6       0.148000
     39 H12         21.8140     6.7590    10.8940 ha         1 ON6       0.157000
     40 H6          21.2720    11.1420    10.8420 hn         1 ON6       0.334500
     41 H1          22.3220    12.9860    11.7740 ha         1 ON6       0.155000
     42 H2          22.8950    10.3980    15.9450 ha         1 ON6       0.152000
     43 H14         23.4960    12.7840    15.9080 ha         1 ON6       0.167000
     44 H10         21.8340    16.5740    13.7350 h1         1 ON6       0.116700
     45 H11         21.0080    15.0810    13.3100 h1         1 ON6       0.116700
     46 H9          21.4570    17.0050    18.4500 ha         1 ON6       0.156000
     47 H7          19.9770    15.1450    19.1250 ha         1 ON6       0.145000
     48 H8          19.2380    13.4830    17.4510 ha         1 ON6       0.156000
@<TRIPOS>BOND
     1     1     2 1   
     2     2     3 1   
     3     2     4 1   
     4     4     5 ar  
     5     4     6 ar  
     6     5    10 ar  
     7     5    35 1   
     8     6     7 1   
     9     6     8 ar  
    10     7    36 1   
    11     8     9 ar  
    12     8    37 1   
    13     9    10 ar  
    14     9    38 1   
    15    10    11 1   
    16    11    12 2   
    17    11    39 1   
    18    12    13 1   
    19    12    14 1   
    20    13    19 1   
    21    14    15 2   
    22    14    16 1   
    23    16    17 1   
    24    16    40 1   
    25    17    18 ar  
    26    17    19 ar  
    27    18    22 ar  
    28    18    41 1   
    29    19    20 ar  
    30    20    21 ar  
    31    20    42 1   
    32    21    22 ar  
    33    21    43 1   
    34    22    23 1   
    35    23    24 2   
    36    23    25 2   
    37    23    26 1   
    38    26    27 1   
    39    26    44 1   
    40    26    45 1   
    41    27    28 ar  
    42    27    33 ar  
    43    28    29 1   
    44    28    30 ar  
    45    30    31 ar  
    46    30    46 1   
    47    31    32 ar  
    48    31    47 1   
    49    32    33 ar  
    50    32    48 1   
    51    33    34 1   
@<TRIPOS>SUBSTRUCTURE
     1 ON6         1 TEMP              0 ****  ****    0 ROOT
