@<TRIPOS>MOLECULE
ON6
   48    51     1     0     0
SMALL
No Charge or Current Charge


@<TRIPOS>ATOM
      1 O3          21.6210     3.7870    17.1540 o          1 ON6      -0.408500
      2 N2          21.3850     4.7420    16.4020 no         1 ON6       0.706200
      3 O4          20.6870     5.7080    16.7300 o          1 ON6      -0.408500
      4 C14         21.9800     4.7320    15.0270 ca         1 ON6      -0.306200
      5 C15         21.7010     5.8120    14.1530 ca         1 ON6       0.021000
      6 C13         22.8110     3.6810    14.5630 ca         1 ON6       0.256100
      7 O2          23.1300     2.6060    15.3350 oh         1 ON6      -0.511100
      8 C12         23.3340     3.7210    13.2630 ca         1 ON6      -0.179000
      9 C11         23.0510     4.7960    12.4080 ca         1 ON6      -0.001000
     10 C10         22.2430     5.8530    12.8540 ca         1 ON6      -0.124800
     11 C9          21.9390     6.9830    11.9310 ce         1 ON6      -0.057200
     12 C8          22.1080     8.3460    12.1170 cd         1 ON6      -0.105600
     13 S2          22.8410     8.8190    13.6790 ss         1 ON6       0.004400
     14 C7          21.7030     9.2950    11.0360 c          1 ON6       0.585200
     15 O1          21.2230     8.9320     9.9720 o          1 ON6      -0.528000
     16 N1          21.8800    10.6260    11.2610 ns         1 ON6      -0.400100
     17 C2          22.3820    11.3010    12.3730 ca         1 ON6       0.067600
     18 C3          22.4200    12.7080    12.3420 ca         1 ON6      -0.060000
     19 C1          22.8330    10.6060    13.5060 ca         1 ON6      -0.122000
     20 C6          23.3240    11.3370    14.6050 ca         1 ON6      -0.076000
     21 C5          23.3630    12.7400    14.5820 ca         1 ON6      -0.029000
     22 C4          22.9050    13.4360    13.4480 ca         1 ON6      -0.228500
     23 S1          22.9150    15.2440    13.4290 sy         1 ON6       1.041500
     24 O6          22.8580    15.6990    12.0330 o          1 ON6      -0.510500
     25 O5          23.9790    15.7070    14.3290 o          1 ON6      -0.510500
     26 C16         21.3310    15.7020    14.1860 c3         1 ON6      -0.233100
     27 C20         21.0930    15.0570    15.5650 ca         1 ON6      -0.059300
     28 C21         21.5830    15.6690    16.7480 ca         1 ON6       0.138000
     29 Cl2         22.4240    17.2200    16.7100 cl         1 ON6      -0.182500
     30 C22         21.3880    15.0630    18.0000 ca         1 ON6      -0.100500
     31 C17         20.6960    13.8470    18.1020 ca         1 ON6      -0.085000
     32 C18         20.1820    13.2440    16.9450 ca         1 ON6      -0.100500
     33 C19         20.3680    13.8420    15.6880 ca         1 ON6       0.138000
     34 Cl1         19.6500    13.0400    14.2890 cl         1 ON6      -0.182500
     35 H5          21.0530     6.6290    14.4700 ha         1 ON6       0.156000
     36 H13         22.6800     2.7280    16.2030 ho         1 ON6       0.523000
     37 H4          23.9650     2.9080    12.9140 ha         1 ON6       0.148000
     38 H3          23.4660     4.8100    11.4020 ha         1 ON6       0.130000
     39 H12         21.5380     6.6710    10.9640 ha         1 ON6       0.207000
     40 H6          21.5860    11.2120    10.4890 hn         1 ON6       0.334500
     41 H1          22.0580    13.2340    11.4610 ha         1 ON6       0.137000
     42 H2          23.6760    10.8120    15.4910 ha         1 ON6       0.134000
     43 H14         23.7400    13.2780    15.4510 ha         1 ON6       0.149000
     44 H10         21.3220    16.7940    14.2530 h1         1 ON6       0.116700
     45 H11         20.5540    15.4110    13.4730 h1         1 ON6       0.116700
     46 H9          21.7730    15.5430    18.8970 ha         1 ON6       0.138000
     47 H7          20.5480    13.3820    19.0740 ha         1 ON6       0.127000
     48 H8          19.6290    12.3110    17.0220 ha         1 ON6       0.138000
@<TRIPOS>BOND
     1     1     2 1   
     2     2     3 1   
     3     2     4 1   
     4     4     5 ar  
     5     4     6 ar  
     6     5    10 ar  
     7     5    35 1   
     8     6     7 1   
     9     6     8 ar  
    10     7    36 1   
    11     8     9 ar  
    12     8    37 1   
    13     9    10 ar  
    14     9    38 1   
    15    10    11 1   
    16    11    12 2   
    17    11    39 1   
    18    12    13 1   
    19    12    14 1   
    20    13    19 1   
    21    14    15 2   
    22    14    16 1   
    23    16    17 1   
    24    16    40 1   
    25    17    18 ar  
    26    17    19 ar  
    27    18    22 ar  
    28    18    41 1   
    29    19    20 ar  
    30    20    21 ar  
    31    20    42 1   
    32    21    22 ar  
    33    21    43 1   
    34    22    23 1   
    35    23    24 2   
    36    23    25 2   
    37    23    26 1   
    38    26    27 1   
    39    26    44 1   
    40    26    45 1   
    41    27    28 ar  
    42    27    33 ar  
    43    28    29 1   
    44    28    30 ar  
    45    30    31 ar  
    46    30    46 1   
    47    31    32 ar  
    48    31    47 1   
    49    32    33 ar  
    50    32    48 1   
    51    33    34 1   
@<TRIPOS>SUBSTRUCTURE
     1 ON6         1 TEMP              0 ****  ****    0 ROOT
