@<TRIPOS>MOLECULE
ON7
   72    75     1     0     0
SMALL
No Charge or Current Charge


@<TRIPOS>ATOM
      1 O5          -5.6600     0.3770     1.5910 o          1 ON7      -0.459000
      2 C28         -4.4850     0.6940     1.4650 c          1 ON7       0.632700
      3 O4          -3.7590     1.2500     2.4930 os         1 ON7      -0.469100
      4 C29         -4.4180     1.4720     3.7530 c3         1 ON7       0.159900
      5 C25         -3.6830     0.5100     0.2200 cc         1 ON7      -0.199600
      6 C24         -4.1060    -0.0250    -1.0320 cc         1 ON7       0.011700
      7 C30         -5.4840    -0.5330    -1.3920 c3         1 ON7      -0.161100
      8 C31         -6.3610     0.5680    -2.0130 c          1 ON7       0.734000
      9 O7          -6.2630     0.7710    -3.2150 o          1 ON7      -0.733000
     10 O6          -7.0360     1.2660    -1.2700 o          1 ON7      -0.733000
     11 C23         -3.0270    -0.0020    -1.8760 cd         1 ON7      -0.242000
     12 C26         -2.3570     0.8570     0.1230 cd         1 ON7      -0.172000
     13 N1          -1.9480     0.5330    -1.1700 na         1 ON7       0.017000
     14 C13         -0.5970     0.7600    -1.7160 c3         1 ON7       0.080600
     15 C8           0.5350    -0.0530    -1.0120 c3         1 ON7      -0.112700
     16 C6           0.7020    -1.4750    -1.6450 c3         1 ON7       0.218600
     17 O2          -0.5470    -2.1720    -1.6620 oh         1 ON7      -0.640000
     18 C3           1.7380    -2.3560    -0.9310 ca         1 ON7      -0.039300
     19 C2           1.6580    -2.6020     0.4540 ca         1 ON7      -0.219500
     20 C5           2.7940    -2.9270    -1.6640 ca         1 ON7      -0.219500
     21 C7           3.7640    -3.7310    -1.0290 ca         1 ON7       0.169100
     22 O3           4.8170    -4.2850    -1.7350 os         1 ON7      -0.345600
     23 C11          4.9960    -4.0850    -3.1490 c3         1 ON7       0.149400
     24 C9           3.6780    -3.9780     0.3590 ca         1 ON7      -0.143300
     25 C10          4.7300    -4.8460     1.0570 c3         1 ON7      -0.021800
     26 C1           2.6230    -3.4010     1.1020 ca         1 ON7       0.169100
     27 O1           2.5710    -3.6350     2.4650 os         1 ON7      -0.345600
     28 C4           1.5540    -3.0710     3.3120 c3         1 ON7       0.149400
     29 C12          1.8900     0.7300    -1.0020 c3         1 ON7      -0.065400
     30 C14          2.0570     1.8100     0.1060 c5         1 ON7      -0.066700
     31 C16          3.5320     2.3670     0.2210 c5         1 ON7      -0.032600
     32 C18          3.2800     3.6780     0.9150 ca         1 ON7      -0.086300
     33 C19          4.2140     4.4590     1.6150 ca         1 ON7      -0.096500
     34 C20          3.7880     5.6700     2.1960 ca         1 ON7      -0.116000
     35 C21          2.4450     6.0830     2.0680 ca         1 ON7      -0.116000
     36 C22          1.5240     5.2870     1.3580 ca         1 ON7      -0.096500
     37 C17          1.9680     4.0820     0.7900 ca         1 ON7      -0.086300
     38 C15          1.1530     3.1020    -0.0090 c5         1 ON7      -0.032600
     39 H1          -3.7210     1.9190     4.4730 h1         1 ON7       0.032700
     40 H2          -5.2690     2.1550     3.6340 h1         1 ON7       0.032700
     41 H3          -4.7840     0.5270     4.1750 h1         1 ON7       0.032700
     42 H4          -5.3190    -1.3200    -2.1380 hc         1 ON7       0.033700
     43 H5          -5.9500    -0.9260    -0.4840 hc         1 ON7       0.033700
     44 H7          -2.9440    -0.3230    -2.9070 h4         1 ON7       0.144000
     45 H8          -1.6880     1.2940     0.8550 h4         1 ON7       0.133000
     46 H9          -0.6020     0.5270    -2.7880 h1         1 ON7       0.057200
     47 H10         -0.4050     1.8320    -1.6350 h1         1 ON7       0.057200
     48 H11          0.2430    -0.1860     0.0360 hc         1 ON7       0.064700
     49 H12          1.0380    -1.3260    -2.6810 h1         1 ON7       0.066700
     50 H13         -0.7490    -2.4040    -0.7320 ho         1 ON7       0.458000
     51 H14          0.8430    -2.1610     1.0170 ha         1 ON7       0.121000
     52 H15          2.8480    -2.7300    -2.7300 ha         1 ON7       0.121000
     53 H16          5.8920    -4.6140    -3.4970 h1         1 ON7       0.040867
     54 H17          4.1350    -4.4720    -3.7100 h1         1 ON7       0.040867
     55 H18          5.1190    -3.0190    -3.3800 h1         1 ON7       0.040867
     56 H19          5.5660    -4.2330     1.4130 hc         1 ON7       0.040700
     57 H20          4.3170    -5.3810     1.9200 hc         1 ON7       0.040700
     58 H21          5.1400    -5.6130     0.3900 hc         1 ON7       0.040700
     59 H22          1.5800    -1.9740     3.2760 h1         1 ON7       0.040867
     60 H23          0.5560    -3.4110     3.0040 h1         1 ON7       0.040867
     61 H24          1.7110    -3.3810     4.3520 h1         1 ON7       0.040867
     62 H25          2.7140     0.0190    -0.8740 hc         1 ON7       0.044200
     63 H26          2.0530     1.1780    -1.9900 hc         1 ON7       0.044200
     64 H27          1.8180     1.3070     1.0510 hc         1 ON7       0.054700
     65 H28          4.1840     1.6960     0.7920 hc         1 ON7       0.055450
     66 H29          3.9900     2.5200    -0.7630 hc         1 ON7       0.055450
     67 H30          5.2480     4.1350     1.7070 ha         1 ON7       0.114000
     68 H31          4.4970     6.2880     2.7430 ha         1 ON7       0.106500
     69 H32          2.1200     7.0190     2.5160 ha         1 ON7       0.106500
     70 H33          0.4880     5.6010     1.2520 ha         1 ON7       0.114000
     71 H34          1.0500     3.4410    -1.0460 hc         1 ON7       0.055450
     72 H35          0.1480     2.9480     0.4010 hc         1 ON7       0.055450
@<TRIPOS>BOND
     1     1     2 2   
     2     2     3 1   
     3     2     5 1   
     4     3     4 1   
     5     4    39 1   
     6     4    40 1   
     7     4    41 1   
     8     5     6 1   
     9     5    12 2   
    10     6     7 1   
    11     6    11 2   
    12     7     8 1   
    13     7    42 1   
    14     7    43 1   
    15     8     9 1   
    16     8    10 1   
    17    11    13 1   
    18    11    44 1   
    19    12    13 1   
    20    12    45 1   
    21    13    14 1   
    22    14    15 1   
    23    14    46 1   
    24    14    47 1   
    25    15    16 1   
    26    15    29 1   
    27    15    48 1   
    28    16    17 1   
    29    16    18 1   
    30    16    49 1   
    31    17    50 1   
    32    18    19 ar  
    33    18    20 ar  
    34    19    26 ar  
    35    19    51 1   
    36    20    21 ar  
    37    20    52 1   
    38    21    22 1   
    39    21    24 ar  
    40    22    23 1   
    41    23    53 1   
    42    23    54 1   
    43    23    55 1   
    44    24    25 1   
    45    24    26 ar  
    46    25    56 1   
    47    25    57 1   
    48    25    58 1   
    49    26    27 1   
    50    27    28 1   
    51    28    59 1   
    52    28    60 1   
    53    28    61 1   
    54    29    30 1   
    55    29    62 1   
    56    29    63 1   
    57    30    31 1   
    58    30    38 1   
    59    30    64 1   
    60    31    32 1   
    61    31    65 1   
    62    31    66 1   
    63    32    33 ar  
    64    32    37 ar  
    65    33    34 ar  
    66    33    67 1   
    67    34    35 ar  
    68    34    68 1   
    69    35    36 ar  
    70    35    69 1   
    71    36    37 ar  
    72    36    70 1   
    73    37    38 1   
    74    38    71 1   
    75    38    72 1   
@<TRIPOS>SUBSTRUCTURE
     1 ON7         1 TEMP              0 ****  ****    0 ROOT
