@<TRIPOS>MOLECULE
ON7
   72    75     1     0     0
SMALL
abcg2


@<TRIPOS>ATOM
      1 O5          -5.5200     0.2530     1.5740 o          1 ON7      -0.459000
      2 C28         -4.4320     0.7470     1.3730 c          1 ON7       0.632700
      3 O4          -3.8450     1.5730     2.2450 os         1 ON7      -0.469100
      4 C29         -4.5450     1.8510     3.4530 c3         1 ON7       0.159900
      5 C25         -3.6140     0.5170     0.1960 cc         1 ON7      -0.199600
      6 C24         -3.9880    -0.2250    -0.9660 cc         1 ON7       0.011700
      7 C30         -5.2750    -0.9260    -1.2260 c3         1 ON7      -0.161100
      8 C31         -6.5060    -0.0050    -1.3780 c          1 ON7       0.734000
      9 O7          -6.3000     1.1980    -1.6180 o          1 ON7      -0.733000
     10 O6          -7.6160    -0.5690    -1.2860 o          1 ON7      -0.733000
     11 C23         -2.9090    -0.1750    -1.8040 cd         1 ON7      -0.242000
     12 C26         -2.3290     0.9830    -0.0060 cd         1 ON7      -0.172000
     13 N1          -1.9110     0.5580    -1.2140 na         1 ON7       0.017000
     14 C13         -0.5960     0.8310    -1.7640 c3         1 ON7       0.080600
     15 C8           0.5490     0.0480    -1.1040 c3         1 ON7      -0.112700
     16 C6           0.7090    -1.3570    -1.7050 c3         1 ON7       0.218600
     17 O2          -0.5120    -2.0490    -1.8540 oh         1 ON7      -0.640000
     18 C3           1.7100    -2.1980    -0.9380 ca         1 ON7      -0.039300
     19 C2           1.5080    -2.4670     0.4100 ca         1 ON7      -0.219500
     20 C5           2.8070    -2.7340    -1.5940 ca         1 ON7      -0.219500
     21 C7           3.7110    -3.5420    -0.9010 ca         1 ON7       0.169100
     22 O3           4.8020    -4.0810    -1.4820 os         1 ON7      -0.345600
     23 C11          5.0370    -3.8410    -2.8540 c3         1 ON7       0.149400
     24 C9           3.5250    -3.8360     0.4520 ca         1 ON7      -0.143300
     25 C10          4.4790    -4.7080     1.2170 c3         1 ON7      -0.021800
     26 C1           2.4140    -3.2730     1.0930 ca         1 ON7       0.169100
     27 O1           2.2970    -3.5680     2.4030 os         1 ON7      -0.345600
     28 C4           1.2070    -3.0400     3.1290 c3         1 ON7       0.149400
     29 C12          1.8730     0.8190    -1.2340 c3         1 ON7      -0.065400
     30 C14          2.1900     1.7270    -0.0560 c5         1 ON7      -0.066700
     31 C16          3.5890     2.3650    -0.1330 c5         1 ON7      -0.032600
     32 C18          3.4600     3.5740     0.7500 ca         1 ON7      -0.086300
     33 C19          4.4490     4.3440     1.3410 ca         1 ON7      -0.096500
     34 C20          4.0810     5.4390     2.1170 ca         1 ON7      -0.116000
     35 C21          2.7390     5.7570     2.2940 ca         1 ON7      -0.116000
     36 C22          1.7460     4.9850     1.6980 ca         1 ON7      -0.096500
     37 C17          2.1150     3.8930     0.9280 ca         1 ON7      -0.086300
     38 C15          1.2510     2.9270     0.1680 c5         1 ON7      -0.032600
     39 H1          -3.9130     2.5340     4.0140 h1         1 ON7       0.032700
     40 H2          -5.5060     2.3290     3.2620 h1         1 ON7       0.032700
     41 H3          -4.7100     0.9490     4.0420 h1         1 ON7       0.032700
     42 H4          -5.1810    -1.5050    -2.1520 hc         1 ON7       0.033700
     43 H5          -5.4780    -1.6590    -0.4420 hc         1 ON7       0.033700
     44 H7          -2.7750    -0.6040    -2.7840 h4         1 ON7       0.144000
     45 H8          -1.6950     1.5860     0.6250 h4         1 ON7       0.133000
     46 H9          -0.6280     0.6360    -2.8370 h1         1 ON7       0.057200
     47 H10         -0.4160     1.9010    -1.6540 h1         1 ON7       0.057200
     48 H11          0.3130    -0.0490    -0.0360 hc         1 ON7       0.064700
     49 H12          1.0860    -1.2310    -2.7260 h1         1 ON7       0.066700
     50 H13         -0.9390    -2.1350    -0.9950 ho         1 ON7       0.458000
     51 H14          0.6530    -2.0470     0.9240 ha         1 ON7       0.121000
     52 H15          2.9500    -2.5090    -2.6430 ha         1 ON7       0.121000
     53 H16          5.9510    -4.3710    -3.1070 h1         1 ON7       0.040867
     54 H17          4.2260    -4.2210    -3.4820 h1         1 ON7       0.040867
     55 H18          5.1760    -2.7770    -3.0660 h1         1 ON7       0.040867
     56 H19          5.1200    -4.1180     1.8770 hc         1 ON7       0.040700
     57 H20          3.9480    -5.4220     1.8460 hc         1 ON7       0.040700
     58 H21          5.1280    -5.2740     0.5550 hc         1 ON7       0.040700
     59 H22          1.2110    -1.9470     3.1380 h1         1 ON7       0.040867
     60 H23          0.2460    -3.3850     2.7380 h1         1 ON7       0.040867
     61 H24          1.3160    -3.3960     4.1510 h1         1 ON7       0.040867
     62 H25          2.6990     0.1090    -1.3280 hc         1 ON7       0.044200
     63 H26          1.8760     1.3990    -2.1640 hc         1 ON7       0.044200
     64 H27          2.1620     1.1180     0.8550 hc         1 ON7       0.054700
     65 H28          4.3790     1.6770     0.1750 hc         1 ON7       0.055450
     66 H29          3.8150     2.6700    -1.1620 hc         1 ON7       0.055450
     67 H30          5.4960     4.0970     1.2090 ha         1 ON7       0.114000
     68 H31          4.8430     6.0460     2.5890 ha         1 ON7       0.106500
     69 H32          2.4650     6.6100     2.9020 ha         1 ON7       0.106500
     70 H33          0.7020     5.2360     1.8400 ha         1 ON7       0.114000
     71 H34          0.9560     3.3750    -0.7880 hc         1 ON7       0.055450
     72 H35          0.3310     2.6610     0.6940 hc         1 ON7       0.055450
@<TRIPOS>BOND
     1     1     2 2   
     2     2     3 1   
     3     2     5 1   
     4     3     4 1   
     5     4    39 1   
     6     4    40 1   
     7     4    41 1   
     8     5     6 1   
     9     5    12 2   
    10     6     7 1   
    11     6    11 2   
    12     7     8 1   
    13     7    42 1   
    14     7    43 1   
    15     8     9 1   
    16     8    10 1   
    17    11    13 1   
    18    11    44 1   
    19    12    13 1   
    20    12    45 1   
    21    13    14 1   
    22    14    15 1   
    23    14    46 1   
    24    14    47 1   
    25    15    16 1   
    26    15    29 1   
    27    15    48 1   
    28    16    17 1   
    29    16    18 1   
    30    16    49 1   
    31    17    50 1   
    32    18    19 ar  
    33    18    20 ar  
    34    19    26 ar  
    35    19    51 1   
    36    20    21 ar  
    37    20    52 1   
    38    21    22 1   
    39    21    24 ar  
    40    22    23 1   
    41    23    53 1   
    42    23    54 1   
    43    23    55 1   
    44    24    25 1   
    45    24    26 ar  
    46    25    56 1   
    47    25    57 1   
    48    25    58 1   
    49    26    27 1   
    50    27    28 1   
    51    28    59 1   
    52    28    60 1   
    53    28    61 1   
    54    29    30 1   
    55    29    62 1   
    56    29    63 1   
    57    30    31 1   
    58    30    38 1   
    59    30    64 1   
    60    31    32 1   
    61    31    65 1   
    62    31    66 1   
    63    32    33 ar  
    64    32    37 ar  
    65    33    34 ar  
    66    33    67 1   
    67    34    35 ar  
    68    34    68 1   
    69    35    36 ar  
    70    35    69 1   
    71    36    37 ar  
    72    36    70 1   
    73    37    38 1   
    74    38    71 1   
    75    38    72 1   
@<TRIPOS>SUBSTRUCTURE
     1 ON7         1 TEMP              0 ****  ****    0 ROOT
