@<TRIPOS>MOLECULE
ON8
   23    22     1     0     0
SMALL
bcc


@<TRIPOS>ATOM
      1 N           46.9120   -36.2870    -9.4800 n8         1 ON8      -0.880800
      2 CA          45.7270   -36.4930   -10.2760 c3         1 ON8       0.047500
      3 CB          45.9680   -36.1430   -11.7490 c3         1 ON8      -0.074400
      4 CG          46.4220   -34.7060   -11.9160 c3         1 ON8       0.138400
      5 C           45.1390   -37.8850   -10.2210 c          1 ON8       0.534900
      6 OD          46.4850   -34.4480   -13.3140 os         1 ON8      -0.238100
      7 NE          47.1070   -33.2350   -13.5580 nu         1 ON8      -0.569700
      8 CZ          48.1860   -33.3050   -14.4440 c2         1 ON8       0.791100
      9 NH1         48.4590   -32.2400   -15.1010 n2         1 ON8      -0.897100
     10 NH2         48.8440   -34.4850   -14.4670 nv         1 ON8      -1.000800
     11 OA1         45.6190   -38.8080    -9.6150 o          1 ON8      -0.512100
     12 H1          46.7220   -36.4910    -8.5070 hn         1 ON8       0.354300
     13 H2          47.6380   -36.9330    -9.7680 hn         1 ON8       0.354300
     14 H4          44.9350   -35.8260    -9.9080 h1         1 ON8       0.080700
     15 H5          45.0430   -36.3030   -12.3100 hc         1 ON8       0.053700
     16 H6          46.7190   -36.8200   -12.1680 hc         1 ON8       0.053700
     17 H7          47.4010   -34.5500   -11.4580 h1         1 ON8       0.052200
     18 H8          45.7120   -34.0250   -11.4320 h1         1 ON8       0.052200
     19 H9          44.2030   -38.0050   -10.7990 h4         1 ON8      -0.007800
     20 H10         46.4240   -32.5540   -13.8690 hn         1 ON8       0.421800
     21 H11         49.3100   -32.3520   -15.6370 hn         1 ON8       0.383400
     22 H12         48.5960   -35.2470   -13.8620 hn         1 ON8       0.432300
     23 H13         49.7210   -34.5490   -14.9520 hn         1 ON8       0.432300
@<TRIPOS>BOND
     1     1     2 1   
     2     1    12 1   
     3     1    13 1   
     4     2     3 1   
     5     2     5 1   
     6     2    14 1   
     7     3     4 1   
     8     3    15 1   
     9     3    16 1   
    10     4     6 1   
    11     4    17 1   
    12     4    18 1   
    13     5    11 2   
    14     5    19 1   
    15     6     7 1   
    16     7     8 1   
    17     7    20 1   
    18     8     9 2   
    19     8    10 1   
    20     9    21 1   
    21    10    22 1   
    22    10    23 1   
@<TRIPOS>SUBSTRUCTURE
     1 ON8         1 TEMP              0 ****  ****    0 ROOT
