@<TRIPOS>MOLECULE
ON8
   23    22     1     0     0
SMALL
No Charge or Current Charge


@<TRIPOS>ATOM
      1 N           46.9070   -36.4960    -9.3480 n8         1 ON8      -0.991200
      2 CA          45.6690   -36.5400   -10.2050 c3         1 ON8       0.047500
      3 CB          46.0220   -36.2360   -11.6840 c3         1 ON8      -0.074400
      4 CG          46.6280   -34.8340   -11.9090 c3         1 ON8       0.161600
      5 C           44.8150   -37.8500   -10.1010 c          1 ON8       0.534900
      6 OD          46.8210   -34.6640   -13.3280 os         1 ON8      -0.261300
      7 NE          47.3910   -33.3700   -13.6350 nu         1 ON8      -0.624900
      8 CZ          48.0870   -33.2820   -14.7860 c2         1 ON8       0.791100
      9 NH1         48.0940   -32.2380   -15.4620 n2         1 ON8      -0.897100
     10 NH2         49.0650   -34.1540   -14.7610 nv         1 ON8      -1.111200
     11 OA1         45.1560   -38.8420    -9.4600 o          1 ON8      -0.512100
     12 H1          46.6480   -36.6610    -8.3650 hn         1 ON8       0.409500
     13 H2          47.4960   -37.3120    -9.5630 hn         1 ON8       0.409500
     14 H4          44.9980   -35.7390    -9.8620 h1         1 ON8       0.080700
     15 H5          45.1100   -36.3160   -12.2890 hc         1 ON8       0.053700
     16 H6          46.7180   -36.9970   -12.0600 hc         1 ON8       0.053700
     17 H7          47.5830   -34.7490   -11.3750 h1         1 ON8       0.052200
     18 H8          45.9420   -34.0710   -11.5170 h1         1 ON8       0.052200
     19 H9          43.8490   -37.8330   -10.6540 h4         1 ON8      -0.007800
     20 H10         46.6470   -32.6750   -13.6460 hn         1 ON8       0.477000
     21 H11         48.8370   -32.3530   -16.1620 hn         1 ON8       0.383400
     22 H12         48.8500   -34.7790   -13.9950 hn         1 ON8       0.487500
     23 H13         49.9600   -33.7010   -14.6420 hn         1 ON8       0.487500
@<TRIPOS>BOND
     1     1     2 1   
     2     1    12 1   
     3     1    13 1   
     4     2     3 1   
     5     2     5 1   
     6     2    14 1   
     7     3     4 1   
     8     3    15 1   
     9     3    16 1   
    10     4     6 1   
    11     4    17 1   
    12     4    18 1   
    13     5    11 2   
    14     5    19 1   
    15     6     7 1   
    16     7     8 1   
    17     7    20 1   
    18     8     9 2   
    19     8    10 1   
    20     9    21 1   
    21    10    22 1   
    22    10    23 1   
@<TRIPOS>SUBSTRUCTURE
     1 ON8         1 TEMP              0 ****  ****    0 ROOT
