@<TRIPOS>MOLECULE
ON9
   77    80     1     0     0
SMALL
abcg2


@<TRIPOS>ATOM
      1 C30         -6.3770    -0.0310    -1.3750 c3         1 ON9      -0.186100
      2 C31         -5.2100     1.0050     2.4550 c3         1 ON9       0.148900
      3 C28         -2.1740     1.6990    -3.9870 c3         1 ON9       0.148900
      4 C27          5.4210     4.3920    -0.6990 c3         1 ON9       0.158900
      5 C29         -5.5950     1.2290    -1.6480 c          1 ON9       0.615700
      6 C24          6.4040    -1.2820     0.2990 c3         1 ON9      -0.197400
      7 C25          7.4720    -2.1810    -0.3470 c          1 ON9       0.719000
      8 C21          4.1070    -0.2670     0.2170 cc         1 ON9      -0.035300
      9 C1          -4.2450     1.3570    -1.0220 ca         1 ON9      -0.242600
     10 O6          -6.0280     2.0880    -2.3820 o          1 ON9      -0.519100
     11 C2          -3.1050     1.5400    -1.8090 ca         1 ON9       0.209100
     12 C20          4.0590     1.1620     0.2840 cc         1 ON9      -0.227600
     13 C22          3.0710    -0.7090     0.9920 cd         1 ON9      -0.250000
     14 C3          -1.8460     1.6060    -1.2110 ca         1 ON9      -0.229500
     15 O3           4.6360     3.3720    -0.0920 os         1 ON9      -0.462100
     16 C6          -0.3520     1.5320     0.8040 c3         1 ON9       0.205600
     17 O2           5.8600     1.8080    -1.1160 o          1 ON9      -0.469000
     18 C5          -2.8560     1.3700     0.9660 ca         1 ON9      -0.229500
     19 C8          -0.2550    -0.9830     0.7350 c3         1 ON9      -0.080400
     20 C7          -0.1020     0.2540     1.6210 c3         1 ON9      -0.101700
     21 C11         -2.6840    -2.8820     1.2700 ca         1 ON9      -0.085300
     22 C4          -1.7280     1.5100     0.1670 ca         1 ON9      -0.018300
     23 O1           8.5210    -2.3410     0.3150 o          1 ON9      -0.744000
     24 C9          -0.3770    -2.3230     1.4610 c5         1 ON9      -0.057700
     25 C13         -0.5430    -3.4510     0.4220 c5         1 ON9      -0.034100
     26 C10         -1.6790    -2.4110     2.2830 c5         1 ON9      -0.034100
     27 C12         -2.0310    -3.4860     0.1980 ca         1 ON9      -0.085300
     28 C17         -4.0650    -2.7830     1.2890 ca         1 ON9      -0.097500
     29 O4          -0.1500     2.7100     1.5540 oh         1 ON9      -0.642000
     30 C16         -4.7950    -3.2990     0.2220 ca         1 ON9      -0.115000
     31 C15         -4.1440    -3.9040    -0.8470 ca         1 ON9      -0.115000
     32 C14         -2.7540    -4.0010    -0.8650 ca         1 ON9      -0.097500
     33 C18          1.2330     0.2980     2.3710 c3         1 ON9       0.078600
     34 C19          2.9910     1.5030     1.0960 cd         1 ON9      -0.139000
     35 C           -4.1070     1.2840     0.3680 ca         1 ON9       0.209100
     36 N            2.4040     0.3690     1.5190 na         1 ON9       0.020000
     37 O            7.2240    -2.6760    -1.4640 o          1 ON9      -0.744000
     38 H1          -5.8140    -0.7700    -0.8120 hc         1 ON9       0.057700
     39 H2          -7.2900     0.2070    -0.8280 hc         1 ON9       0.057700
     40 H3          -6.6770    -0.4680    -2.3290 hc         1 ON9       0.057700
     41 H4          -4.7930     1.8910     2.9400 h1         1 ON9       0.043533
     42 H5          -6.2380     0.8770     2.7840 h1         1 ON9       0.043533
     43 H6          -4.6330     0.1280     2.7590 h1         1 ON9       0.043533
     44 H7          -1.4940     0.8520    -3.8720 h1         1 ON9       0.043533
     45 H8          -2.5620     1.7040    -5.0030 h1         1 ON9       0.043533
     46 H9          -1.6190     2.6250    -3.8180 h1         1 ON9       0.043533
     47 H10          5.0300     5.3340    -0.3240 h1         1 ON9       0.036700
     48 H11          6.4740     4.3090    -0.4280 h1         1 ON9       0.036700
     49 H12          5.3330     4.3750    -1.7860 h1         1 ON9       0.036700
     50 H13          5.3100    -0.7580    -1.4780 hc         1 ON9       0.054700
     51 H14          4.6560    -2.1320    -0.6200 hc         1 ON9       0.054700
     52 H15          6.8410    -0.2930     0.4630 hc         1 ON9       0.021700
     53 H16          6.1880    -1.6680     1.3010 hc         1 ON9       0.021700
     54 H17          2.7610    -1.7170     1.2230 h4         1 ON9       0.142000
     55 H18         -0.9500     1.7040    -1.8080 ha         1 ON9       0.122500
     56 H19          0.3880     1.5750    -0.0030 h1         1 ON9       0.099700
     57 H20         -2.7540     1.2940     2.0400 ha         1 ON9       0.122500
     58 H21         -1.1410    -0.8650     0.1050 hc         1 ON9       0.062700
     59 H22          0.5870    -1.0280     0.0360 hc         1 ON9       0.062700
     60 H23         -0.8580     0.2180     2.4170 hc         1 ON9       0.041700
     61 H25          0.5000    -2.4980     2.0900 hc         1 ON9       0.060700
     62 H26          0.0300    -3.2730    -0.4910 hc         1 ON9       0.055200
     63 H27         -0.2020    -4.4080     0.8310 hc         1 ON9       0.055200
     64 H28         -1.9630    -1.4730     2.7630 hc         1 ON9       0.055200
     65 H29         -1.5750    -3.1510     3.0840 hc         1 ON9       0.055200
     66 H30         -4.5740    -2.3070     2.1190 ha         1 ON9       0.110500
     67 H31         -0.7340     2.7040     2.3210 ho         1 ON9       0.434000
     68 H32         -5.8750    -3.2260     0.2210 ha         1 ON9       0.107500
     69 H33         -4.7200    -4.2970    -1.6760 ha         1 ON9       0.107500
     70 H34         -2.2520    -4.4650    -1.7050 ha         1 ON9       0.110500
     71 H35          1.2580     1.1540     3.0420 h1         1 ON9       0.057200
     72 H36          1.3310    -0.5890     2.9980 h1         1 ON9       0.057200
     73 H37          2.6140     2.4670     1.3950 h4         1 ON9       0.154000
     74 O5          -3.2990     1.5920    -3.1340 os         1 ON9      -0.336600
     75 O7          -5.2560     1.1470     1.0490 os         1 ON9      -0.336600
     76 C26          4.9440     2.1050    -0.3800 c          1 ON9       0.628700
     77 C23          5.1000    -1.1430    -0.4800 c3         1 ON9       0.000900
@<TRIPOS>BOND
     1     1     5 1   
     2     1    38 1   
     3     1    39 1   
     4     1    40 1   
     5     2    41 1   
     6     2    42 1   
     7     2    43 1   
     8     2    75 1   
     9     3    44 1   
    10     3    45 1   
    11     3    46 1   
    12     3    74 1   
    13     4    15 1   
    14     4    47 1   
    15     4    48 1   
    16     4    49 1   
    17     5     9 1   
    18     5    10 2   
    19     6     7 1   
    20     6    52 1   
    21     6    53 1   
    22     6    77 1   
    23     7    23 1   
    24     7    37 1   
    25     8    12 1   
    26     8    13 2   
    27     8    77 1   
    28     9    11 ar  
    29     9    35 ar  
    30    11    14 ar  
    31    11    74 1   
    32    12    34 2   
    33    12    76 1   
    34    13    36 1   
    35    13    54 1   
    36    14    22 ar  
    37    14    55 1   
    38    15    76 1   
    39    16    20 1   
    40    16    22 1   
    41    16    29 1   
    42    16    56 1   
    43    17    76 2   
    44    18    22 ar  
    45    18    35 ar  
    46    18    57 1   
    47    19    20 1   
    48    19    24 1   
    49    19    58 1   
    50    19    59 1   
    51    20    33 1   
    52    20    60 1   
    53    21    26 1   
    54    21    27 ar  
    55    21    28 ar  
    56    24    25 1   
    57    24    26 1   
    58    24    61 1   
    59    25    27 1   
    60    25    62 1   
    61    25    63 1   
    62    26    64 1   
    63    26    65 1   
    64    27    32 ar  
    65    28    30 ar  
    66    28    66 1   
    67    29    67 1   
    68    30    31 ar  
    69    30    68 1   
    70    31    32 ar  
    71    31    69 1   
    72    32    70 1   
    73    33    36 1   
    74    33    71 1   
    75    33    72 1   
    76    34    36 1   
    77    34    73 1   
    78    35    75 1   
    79    50    77 1   
    80    51    77 1   
@<TRIPOS>SUBSTRUCTURE
     1 ON9         1 TEMP              0 ****  ****    0 ROOT
