@<TRIPOS>MOLECULE
ON9
   77    80     1     0     0
SMALL
No Charge or Current Charge


@<TRIPOS>ATOM
      1 C30         -6.0990    -0.1300    -1.9330 c3         1 ON9      -0.186100
      2 C31         -5.3740     0.8730     2.4790 c3         1 ON9       0.148900
      3 C28         -2.1020     2.0170    -4.0250 c3         1 ON9       0.148900
      4 C27          5.3830     4.3760    -1.0080 c3         1 ON9       0.158900
      5 C29         -5.5730     1.2890    -1.7220 c          1 ON9       0.615700
      6 C24          6.4820    -1.3130     0.3020 c3         1 ON9      -0.197400
      7 C25          7.4220    -2.2520    -0.4700 c          1 ON9       0.719000
      8 C21          4.1390    -0.3070     0.2700 cc         1 ON9      -0.035300
      9 C1          -4.2600     1.4390    -1.0360 ca         1 ON9      -0.242600
     10 O6          -6.2060     2.2660    -2.1020 o          1 ON9      -0.519100
     11 C2          -3.1040     1.6820    -1.7910 ca         1 ON9       0.209100
     12 C20          4.0650     1.1140     0.2350 cc         1 ON9      -0.227600
     13 C22          3.1330    -0.7540     1.0850 cd         1 ON9      -0.250000
     14 C3          -1.8550     1.7780    -1.1430 ca         1 ON9      -0.229500
     15 O3           4.6080     3.3710    -0.3300 os         1 ON9      -0.462100
     16 C6          -0.3830     1.6300     0.9330 c3         1 ON9       0.205600
     17 O2           5.8690     1.7050    -1.2380 o          1 ON9      -0.469000
     18 C5          -2.9350     1.4090     1.0000 ca         1 ON9      -0.229500
     19 C8          -0.3120    -0.9550     0.8500 c3         1 ON9      -0.080400
     20 C7          -0.1090     0.3190     1.7380 c3         1 ON9      -0.101700
     21 C11         -2.6810    -2.9820     1.4590 ca         1 ON9      -0.085300
     22 C4          -1.7600     1.6300     0.2530 ca         1 ON9      -0.018300
     23 O1           7.3540    -3.4500    -0.2420 o          1 ON9      -0.744000
     24 C9          -0.4040    -2.3250     1.5850 c5         1 ON9      -0.057700
     25 C13         -0.5370    -3.5180     0.5540 c5         1 ON9      -0.034100
     26 C10         -1.7030    -2.4690     2.4840 c5         1 ON9      -0.034100
     27 C12         -2.0340    -3.5650     0.3890 ca         1 ON9      -0.085300
     28 C17         -4.0810    -2.8970     1.5010 ca         1 ON9      -0.097500
     29 O4          -0.2900     2.7670     1.8010 oh         1 ON9      -0.642000
     30 C16         -4.8250    -3.4180     0.4240 ca         1 ON9      -0.115000
     31 C15         -4.1640    -4.0160    -0.6700 ca         1 ON9      -0.115000
     32 C14         -2.7570    -4.0940    -0.6920 ca         1 ON9      -0.097500
     33 C18          1.2760     0.3340     2.4520 c3         1 ON9       0.078600
     34 C19          3.0230     1.5220     1.0300 cd         1 ON9      -0.139000
     35 C           -4.1840     1.3050     0.3570 ca         1 ON9       0.209100
     36 N            2.4380     0.3660     1.5470 na         1 ON9       0.020000
     37 O            8.1610    -1.7670    -1.3130 o          1 ON9      -0.744000
     38 H1          -5.3370    -0.7100    -2.4670 hc         1 ON9       0.057700
     39 H2          -6.1400    -0.6450    -0.9680 hc         1 ON9       0.057700
     40 H3          -7.0650    -0.1530    -2.4490 hc         1 ON9       0.057700
     41 H4          -5.0070     1.7690     2.9970 h1         1 ON9       0.043533
     42 H5          -6.3980     0.6790     2.8200 h1         1 ON9       0.043533
     43 H6          -4.7510     0.0180     2.7690 h1         1 ON9       0.043533
     44 H7          -1.3710     1.2020    -3.9380 h1         1 ON9       0.043533
     45 H8          -2.4290     2.0690    -5.0710 h1         1 ON9       0.043533
     46 H9          -1.6070     2.9640    -3.7760 h1         1 ON9       0.043533
     47 H10          5.0040     5.3770    -0.7650 h1         1 ON9       0.036700
     48 H11          6.4370     4.3280    -0.7040 h1         1 ON9       0.036700
     49 H12          5.3260     4.2460    -2.0960 h1         1 ON9       0.036700
     50 H13          5.3210    -0.7880    -1.4670 hc         1 ON9       0.054700
     51 H14          4.7100    -2.1720    -0.5950 hc         1 ON9       0.054700
     52 H15          6.9070    -0.3040     0.3640 hc         1 ON9       0.021700
     53 H16          6.2260    -1.7430     1.2780 hc         1 ON9       0.021700
     54 H17          2.8610    -1.7650     1.3650 h4         1 ON9       0.142000
     55 H18         -0.9450     1.9400    -1.7130 ha         1 ON9       0.122500
     56 H19          0.3840     1.7040     0.1480 h1         1 ON9       0.099700
     57 H20         -2.8610     1.2910     2.0760 ha         1 ON9       0.122500
     58 H21         -1.2270    -0.8440     0.2580 hc         1 ON9       0.062700
     59 H22          0.4950    -0.9930     0.1080 hc         1 ON9       0.062700
     60 H23         -0.8500     0.2870     2.5410 hc         1 ON9       0.041700
     61 H25          0.5060    -2.4370     2.1830 hc         1 ON9       0.060700
     62 H26         -0.0020    -3.3340    -0.3850 hc         1 ON9       0.055200
     63 H27         -0.1530    -4.4560     0.9730 hc         1 ON9       0.055200
     64 H28         -2.0280    -1.5350     2.9520 hc         1 ON9       0.055200
     65 H29         -1.5540    -3.2000     3.2860 hc         1 ON9       0.055200
     66 H30         -4.5830    -2.4340     2.3470 ha         1 ON9       0.110500
     67 H31         -1.1840     2.8960     2.1830 ho         1 ON9       0.434000
     68 H32         -5.9110    -3.3590     0.4360 ha         1 ON9       0.107500
     69 H33         -4.7410    -4.4170    -1.5010 ha         1 ON9       0.107500
     70 H34         -2.2400    -4.5480    -1.5340 ha         1 ON9       0.110500
     71 H35          1.3370     1.2060     3.1150 h1         1 ON9       0.057200
     72 H36          1.3650    -0.5510     3.0930 h1         1 ON9       0.057200
     73 H37          2.6540     2.5160     1.2570 h4         1 ON9       0.154000
     74 O5          -3.2290     1.7860    -3.1620 os         1 ON9      -0.336600
     75 O7          -5.3510     1.0630     1.0540 os         1 ON9      -0.336600
     76 C26          4.9430     2.0520    -0.5190 c          1 ON9       0.628700
     77 C23          5.1410    -1.1720    -0.4570 c3         1 ON9       0.000900
@<TRIPOS>BOND
     1     1     5 1   
     2     1    38 1   
     3     1    39 1   
     4     1    40 1   
     5     2    41 1   
     6     2    42 1   
     7     2    43 1   
     8     2    75 1   
     9     3    44 1   
    10     3    45 1   
    11     3    46 1   
    12     3    74 1   
    13     4    15 1   
    14     4    47 1   
    15     4    48 1   
    16     4    49 1   
    17     5     9 1   
    18     5    10 2   
    19     6     7 1   
    20     6    52 1   
    21     6    53 1   
    22     6    77 1   
    23     7    23 1   
    24     7    37 1   
    25     8    12 1   
    26     8    13 2   
    27     8    77 1   
    28     9    11 ar  
    29     9    35 ar  
    30    11    14 ar  
    31    11    74 1   
    32    12    34 2   
    33    12    76 1   
    34    13    36 1   
    35    13    54 1   
    36    14    22 ar  
    37    14    55 1   
    38    15    76 1   
    39    16    20 1   
    40    16    22 1   
    41    16    29 1   
    42    16    56 1   
    43    17    76 2   
    44    18    22 ar  
    45    18    35 ar  
    46    18    57 1   
    47    19    20 1   
    48    19    24 1   
    49    19    58 1   
    50    19    59 1   
    51    20    33 1   
    52    20    60 1   
    53    21    26 1   
    54    21    27 ar  
    55    21    28 ar  
    56    24    25 1   
    57    24    26 1   
    58    24    61 1   
    59    25    27 1   
    60    25    62 1   
    61    25    63 1   
    62    26    64 1   
    63    26    65 1   
    64    27    32 ar  
    65    28    30 ar  
    66    28    66 1   
    67    29    67 1   
    68    30    31 ar  
    69    30    68 1   
    70    31    32 ar  
    71    31    69 1   
    72    32    70 1   
    73    33    36 1   
    74    33    71 1   
    75    33    72 1   
    76    34    36 1   
    77    34    73 1   
    78    35    75 1   
    79    50    77 1   
    80    51    77 1   
@<TRIPOS>SUBSTRUCTURE
     1 ON9         1 TEMP              0 ****  ****    0 ROOT
