@<TRIPOS>MOLECULE
ONB
   26    28     1     0     0
SMALL
No Charge or Current Charge


@<TRIPOS>ATOM
      1 CAA         -3.6820     0.0430    -0.7730 ca         1 ONB      -0.113000
      2 CAB          3.7060    -0.0130    -0.7510 ca         1 ONB      -0.113000
      3 CAC         -3.3130    -1.2720    -0.4600 ca         1 ONB      -0.104000
      4 CAD          3.3360    -1.3160    -0.3890 ca         1 ONB      -0.104000
      5 CAE         -2.8100     1.1050    -0.4810 ca         1 ONB      -0.093000
      6 CAF          2.8140     1.0520    -0.5430 ca         1 ONB      -0.093000
      7 CAG         -2.0720    -1.5210     0.1490 ca         1 ONB      -0.085000
      8 CAH          2.0810    -1.5470     0.1950 ca         1 ONB      -0.085000
      9 CAI         -0.7100     2.0350     0.3980 cc         1 ONB      -0.100000
     10 CAJ          0.6600     2.0030     0.2010 cd         1 ONB      -0.100000
     11 NAK         -0.0000    -0.7460     1.0740 na         1 ONB      -0.228600
     12 CAL         -1.5550     0.8690     0.1180 ca         1 ONB      -0.074000
     13 CAM          1.5360     0.8300     0.0110 ca         1 ONB      -0.074000
     14 CAN         -1.1930    -0.4590     0.4360 ca         1 ONB      -0.034200
     15 CAO          1.1810    -0.4830     0.3990 ca         1 ONB      -0.034200
     16 HAA         -4.6440     0.2420    -1.2410 ha         1 ONB       0.114000
     17 HAB          4.6830     0.1730    -1.1920 ha         1 ONB       0.114000
     18 HAC         -3.9870    -2.0970    -0.6820 ha         1 ONB       0.115500
     19 HAD          4.0260    -2.1430    -0.5440 ha         1 ONB       0.115500
     20 HAE         -3.1090     2.1210    -0.7280 ha         1 ONB       0.112000
     21 HAF          3.1150     2.0570    -0.8300 ha         1 ONB       0.112000
     22 HAG         -1.7940    -2.5420     0.4000 ha         1 ONB       0.127000
     23 HAH          1.8120    -2.5550     0.5020 ha         1 ONB       0.127000
     24 HAI         -1.1730     3.0030     0.5620 ha         1 ONB       0.110000
     25 HAJ          1.1570     2.9650     0.2580 ha         1 ONB       0.110000
     26 HNAK         0.0080    -1.2430     1.9560 hn         1 ONB       0.278000
@<TRIPOS>BOND
     1     1     3 ar  
     2     1     5 ar  
     3     1    16 1   
     4     2     4 ar  
     5     2     6 ar  
     6     2    17 1   
     7     3     7 ar  
     8     3    18 1   
     9     4     8 ar  
    10     4    19 1   
    11     5    12 ar  
    12     5    20 1   
    13     6    13 ar  
    14     6    21 1   
    15     7    14 ar  
    16     7    22 1   
    17     8    15 ar  
    18     8    23 1   
    19     9    10 2   
    20     9    12 1   
    21     9    24 1   
    22    10    13 1   
    23    10    25 1   
    24    11    14 1   
    25    11    15 1   
    26    11    26 1   
    27    12    14 ar  
    28    13    15 ar  
@<TRIPOS>SUBSTRUCTURE
     1 ONB         1 TEMP              0 ****  ****    0 ROOT
