@<TRIPOS>MOLECULE
ONB
   26    28     1     0     0
SMALL
bcc


@<TRIPOS>ATOM
      1 CAA         -3.5840    -0.0130    -0.8440 ca         1 ONB      -0.131000
      2 CAB          3.5920    -0.0440    -0.8320 ca         1 ONB      -0.131000
      3 CAC         -3.2010    -1.3180    -0.5520 ca         1 ONB      -0.122000
      4 CAD          3.1950    -1.3460    -0.5440 ca         1 ONB      -0.122000
      5 CAE         -2.7630     1.0430    -0.4890 ca         1 ONB      -0.111000
      6 CAF          2.7800     1.0190    -0.4770 ca         1 ONB      -0.111000
      7 CAG         -2.0070    -1.5530     0.1140 ca         1 ONB      -0.103000
      8 CAH          1.9980    -1.5700     0.1190 ca         1 ONB      -0.103000
      9 CAI         -0.6620     1.9520     0.4330 cc         1 ONB      -0.118000
     10 CAJ          0.6830     1.9460     0.4360 cd         1 ONB      -0.118000
     11 NAK         -0.0030    -0.7610     1.2330 na         1 ONB      -0.178300
     12 CAL         -1.5380     0.8210     0.1490 ca         1 ONB      -0.074000
     13 CAM          1.5510     0.8070     0.1560 ca         1 ONB      -0.074000
     14 CAN         -1.1840    -0.4960     0.4780 ca         1 ONB      -0.034200
     15 CAO          1.1830    -0.5060     0.4830 ca         1 ONB      -0.034200
     16 HAA         -4.5220     0.1790    -1.3480 ha         1 ONB       0.132000
     17 HAB          4.5330     0.1400    -1.3330 ha         1 ONB       0.132000
     18 HAC         -3.8400    -2.1480    -0.8250 ha         1 ONB       0.133500
     19 HAD          3.8260    -2.1810    -0.8170 ha         1 ONB       0.133500
     20 HAE         -3.0610     2.0580    -0.7240 ha         1 ONB       0.130000
     21 HAF          3.0880     2.0320    -0.7100 ha         1 ONB       0.130000
     22 HAG         -1.7100    -2.5600     0.3770 ha         1 ONB       0.145000
     23 HAH          1.6900    -2.5750     0.3790 ha         1 ONB       0.145000
     24 HAI         -1.1530     2.9100     0.5570 ha         1 ONB       0.128000
     25 HAJ          1.1820     2.9000     0.5640 ha         1 ONB       0.128000
     26 HNAK        -0.0020    -0.1740     2.0620 hn         1 ONB       0.227700
@<TRIPOS>BOND
     1     1     3 ar  
     2     1     5 ar  
     3     1    16 1   
     4     2     4 ar  
     5     2     6 ar  
     6     2    17 1   
     7     3     7 ar  
     8     3    18 1   
     9     4     8 ar  
    10     4    19 1   
    11     5    12 ar  
    12     5    20 1   
    13     6    13 ar  
    14     6    21 1   
    15     7    14 ar  
    16     7    22 1   
    17     8    15 ar  
    18     8    23 1   
    19     9    10 2   
    20     9    12 1   
    21     9    24 1   
    22    10    13 1   
    23    10    25 1   
    24    11    14 1   
    25    11    15 1   
    26    11    26 1   
    27    12    14 ar  
    28    13    15 ar  
@<TRIPOS>SUBSTRUCTURE
     1 ONB         1 TEMP              0 ****  ****    0 ROOT
