@<TRIPOS>MOLECULE
ONC
   53    57     1     0     0
SMALL
No Charge or Current Charge


@<TRIPOS>ATOM
      1 C01         -3.4230    -3.1680    -1.3890 c3         1 ONC      -0.051800
      2 C02         -3.9420    -2.2700    -0.2690 ca         1 ONC      -0.069300
      3 C03         -4.6930    -2.8540     0.7720 ca         1 ONC      -0.107000
      4 C04         -5.1990    -2.0700     1.8200 ca         1 ONC      -0.108000
      5 C05         -4.9630    -0.6890     1.8350 ca         1 ONC      -0.110000
      6 C06         -4.2170    -0.0950     0.8050 ca         1 ONC      -0.091000
      7 C07         -3.6940    -0.8710    -0.2510 ca         1 ONC      -0.085300
      8 C08         -2.8830    -0.1670    -1.3460 c3         1 ONC       0.151300
      9 C10         -0.5910    -0.0140    -0.3890 c          1 ONC       0.577200
     10 C12          0.4900     0.8630     0.1480 cc         1 ONC      -0.228400
     11 C13          0.4010     2.2470     0.2570 cd         1 ONC       0.057700
     12 C14          1.5230     3.0910     0.8190 c6         1 ONC      -0.042200
     13 C15          2.5700     2.2280     1.5510 c6         1 ONC       0.171800
     14 C17          1.7250     0.1200     0.6190 c6         1 ONC       0.225000
     15 C19          4.5640    -0.8290     0.3810 ca         1 ONC      -0.094300
     16 C20          5.0860    -0.5630    -0.9000 ca         1 ONC      -0.095500
     17 C21          5.5090    -1.6180    -1.7280 ca         1 ONC      -0.112500
     18 C22          5.4120    -2.9460    -1.2800 ca         1 ONC      -0.105000
     19 C23          4.8920    -3.2180    -0.0030 ca         1 ONC      -0.112500
     20 C24          4.4690    -2.1640     0.8250 ca         1 ONC      -0.095500
     21 C26         -1.8180     2.0100    -0.7440 cc         1 ONC       0.556400
     22 C28         -2.4120     4.0770    -0.8380 cd         1 ONC       0.280900
     23 C29         -1.1550     4.0860    -0.2820 cc         1 ONC      -0.243000
     24 N09         -1.7520     0.6400    -0.8230 n          1 ONC      -0.368300
     25 N16          2.9040     1.0220     0.7550 n3         1 ONC      -0.725600
     26 N25         -0.7990     2.7580    -0.2300 na         1 ONC      -0.106400
     27 N27         -2.8210     2.7830    -1.1240 nd         1 ONC      -0.705000
     28 H1          -2.3270    -3.1730    -1.4180 hc         1 ONC       0.042700
     29 H2          -3.7480    -4.2080    -1.2620 hc         1 ONC       0.042700
     30 H3          -3.7890    -2.8320    -2.3670 hc         1 ONC       0.042700
     31 H4          -4.8880    -3.9240     0.7710 ha         1 ONC       0.109000
     32 H5          -5.7770    -2.5320     2.6160 ha         1 ONC       0.111000
     33 H6          -5.3580    -0.0770     2.6430 ha         1 ONC       0.110000
     34 H7          -4.0460     0.9790     0.8300 ha         1 ONC       0.109000
     35 H8          -2.4810    -0.8890    -2.0660 h1         1 ONC       0.082200
     36 H9          -3.5650     0.4750    -1.9180 h1         1 ONC       0.082200
     37 H10          2.0160     3.6340     0.0020 hc         1 ONC       0.070700
     38 H11          1.1370     3.8520     1.5100 hc         1 ONC       0.070700
     39 H12          3.4660     2.8400     1.7310 h1         1 ONC       0.040700
     40 H13          2.1750     1.9340     2.5350 h1         1 ONC       0.040700
     41 H14          1.5070    -0.3670     1.5820 h1         1 ONC       0.064200
     42 H15          1.9640    -0.6880    -0.0900 h1         1 ONC       0.064200
     43 H16          3.9050    -0.0640     2.2840 h1         1 ONC       0.039700
     44 H17          4.9370     1.0290     1.3630 h1         1 ONC       0.039700
     45 H18          5.1590     0.4630    -1.2540 ha         1 ONC       0.116500
     46 H19          5.9100    -1.4050    -2.7170 ha         1 ONC       0.113000
     47 H20          5.7390    -3.7620    -1.9200 ha         1 ONC       0.112000
     48 H21          4.8150    -4.2460     0.3440 ha         1 ONC       0.113000
     49 H22          4.0650    -2.3850     1.8110 ha         1 ONC       0.116500
     50 H23         -3.0450     4.9300    -1.0500 h4         1 ONC       0.043100
     51 H24         -0.5320     4.9040     0.0560 h4         1 ONC       0.165000
     52 O11         -0.4830    -1.2320    -0.4520 o          1 ONC      -0.525000
     53 C18          4.1030     0.3200     1.2740 c3         1 ONC       0.220100
@<TRIPOS>BOND
     1     1     2 1   
     2     1    28 1   
     3     1    29 1   
     4     1    30 1   
     5     2     3 ar  
     6     2     7 ar  
     7     3     4 ar  
     8     3    31 1   
     9     4     5 ar  
    10     4    32 1   
    11     5     6 ar  
    12     5    33 1   
    13     6     7 ar  
    14     6    34 1   
    15     7     8 1   
    16     8    24 1   
    17     8    35 1   
    18     8    36 1   
    19     9    10 1   
    20     9    24 1   
    21     9    52 2   
    22    10    11 2   
    23    10    14 1   
    24    11    12 1   
    25    11    26 1   
    26    12    13 1   
    27    12    37 1   
    28    12    38 1   
    29    13    25 1   
    30    13    39 1   
    31    13    40 1   
    32    14    25 1   
    33    14    41 1   
    34    14    42 1   
    35    15    16 ar  
    36    15    20 ar  
    37    15    53 1   
    38    16    17 ar  
    39    16    45 1   
    40    17    18 ar  
    41    17    46 1   
    42    18    19 ar  
    43    18    47 1   
    44    19    20 ar  
    45    19    48 1   
    46    20    49 1   
    47    21    24 1   
    48    21    26 1   
    49    21    27 2   
    50    22    23 2   
    51    22    27 1   
    52    22    50 1   
    53    23    26 1   
    54    23    51 1   
    55    25    53 1   
    56    43    53 1   
    57    44    53 1   
@<TRIPOS>SUBSTRUCTURE
     1 ONC         1 TEMP              0 ****  ****    0 ROOT
