@<TRIPOS>MOLECULE
ONC
   53    57     1     0     0
SMALL
abcg2


@<TRIPOS>ATOM
      1 C01         -4.7520    -2.4550    -1.8900 c3         1 ONC      -0.051800
      2 C02         -4.6250    -1.9370    -0.4870 ca         1 ONC      -0.069300
      3 C03         -5.5250    -2.3410     0.4930 ca         1 ONC      -0.107000
      4 C04         -5.4340    -1.8710     1.7970 ca         1 ONC      -0.108000
      5 C05         -4.4280    -0.9810     2.1320 ca         1 ONC      -0.110000
      6 C06         -3.5200    -0.5700     1.1650 ca         1 ONC      -0.091000
      7 C07         -3.6050    -1.0390    -0.1400 ca         1 ONC      -0.085300
      8 C08         -2.6390    -0.6060    -1.2160 c3         1 ONC       0.151300
      9 C10         -0.4240    -0.3210    -0.2120 c          1 ONC       0.577200
     10 C12          0.6070     0.6050     0.2340 cc         1 ONC      -0.228400
     11 C13          0.4280     1.9380     0.1780 cd         1 ONC       0.057700
     12 C14          1.4380     2.9130     0.6710 c6         1 ONC      -0.042200
     13 C15          2.4990     2.2060     1.4990 c6         1 ONC       0.171800
     14 C17          1.8750     0.0170     0.7740 c6         1 ONC       0.225000
     15 C19          4.7530    -0.6190     0.5210 ca         1 ONC      -0.094300
     16 C20          4.9160    -0.4020    -0.8470 ca         1 ONC      -0.095500
     17 C21          5.4970    -1.3700    -1.6520 ca         1 ONC      -0.112500
     18 C22          5.9260    -2.5730    -1.1000 ca         1 ONC      -0.105000
     19 C23          5.7680    -2.7970     0.2600 ca         1 ONC      -0.112500
     20 C24          5.1810    -1.8250     1.0630 ca         1 ONC      -0.095500
     21 C26         -1.7350     1.6030    -0.8060 cc         1 ONC       0.556400
     22 C28         -2.4250     3.5810    -1.1020 cd         1 ONC       0.280900
     23 C29         -1.1940     3.7180    -0.5490 cc         1 ONC      -0.243000
     24 N09         -1.5680     0.2480    -0.7420 n          1 ONC      -0.368300
     25 N16          2.9350     1.0010     0.8230 n3         1 ONC      -0.725600
     26 N25         -0.7450     2.4220    -0.3550 na         1 ONC      -0.106400
     27 N27         -2.7620     2.2580    -1.2590 nd         1 ONC      -0.705000
     28 H1          -3.8490    -2.9800    -2.2140 hc         1 ONC       0.042700
     29 H2          -5.5840    -3.1520    -1.9770 hc         1 ONC       0.042700
     30 H3          -4.9210    -1.6490    -2.6070 hc         1 ONC       0.042700
     31 H4          -6.3140    -3.0350     0.2300 ha         1 ONC       0.109000
     32 H5          -6.1470    -2.1990     2.5420 ha         1 ONC       0.111000
     33 H6          -4.3440    -0.6030     3.1430 ha         1 ONC       0.110000
     34 H7          -2.7390     0.1260     1.4470 ha         1 ONC       0.109000
     35 H8          -2.1880    -1.4780    -1.6890 h1         1 ONC       0.082200
     36 H9          -3.1710    -0.0660    -2.0010 h1         1 ONC       0.082200
     37 H10          1.8910     3.4230    -0.1840 hc         1 ONC       0.070700
     38 H11          0.9530     3.6810     1.2780 hc         1 ONC       0.070700
     39 H12          3.3510     2.8740     1.6250 h1         1 ONC       0.040700
     40 H13          2.1030     1.9970     2.5060 h1         1 ONC       0.040700
     41 H14          1.6760    -0.4210     1.7690 h1         1 ONC       0.064200
     42 H15          2.1850    -0.8120     0.1340 h1         1 ONC       0.064200
     43 H16          3.9880     0.0500     2.4070 h1         1 ONC       0.039700
     44 H17          4.8660     1.2690     1.4950 h1         1 ONC       0.039700
     45 H18          4.5740     0.5290    -1.2810 ha         1 ONC       0.116500
     46 H19          5.6160    -1.1880    -2.7120 ha         1 ONC       0.113000
     47 H20          6.3780    -3.3300    -1.7280 ha         1 ONC       0.112000
     48 H21          6.0960    -3.7310     0.6980 ha         1 ONC       0.113000
     49 H22          5.0520    -2.0110     2.1230 ha         1 ONC       0.116500
     50 H23         -3.0980     4.3690    -1.4010 h4         1 ONC       0.043100
     51 H24         -0.6090     4.5820    -0.2870 h4         1 ONC       0.165000
     52 O11         -0.3110    -1.5340    -0.1360 o          1 ONC      -0.525000
     53 C18          4.1470     0.4510     1.3920 c3         1 ONC       0.220100
@<TRIPOS>BOND
     1     1     2 1   
     2     1    28 1   
     3     1    29 1   
     4     1    30 1   
     5     2     3 ar  
     6     2     7 ar  
     7     3     4 ar  
     8     3    31 1   
     9     4     5 ar  
    10     4    32 1   
    11     5     6 ar  
    12     5    33 1   
    13     6     7 ar  
    14     6    34 1   
    15     7     8 1   
    16     8    24 1   
    17     8    35 1   
    18     8    36 1   
    19     9    10 1   
    20     9    24 1   
    21     9    52 2   
    22    10    11 2   
    23    10    14 1   
    24    11    12 1   
    25    11    26 1   
    26    12    13 1   
    27    12    37 1   
    28    12    38 1   
    29    13    25 1   
    30    13    39 1   
    31    13    40 1   
    32    14    25 1   
    33    14    41 1   
    34    14    42 1   
    35    15    16 ar  
    36    15    20 ar  
    37    15    53 1   
    38    16    17 ar  
    39    16    45 1   
    40    17    18 ar  
    41    17    46 1   
    42    18    19 ar  
    43    18    47 1   
    44    19    20 ar  
    45    19    48 1   
    46    20    49 1   
    47    21    24 1   
    48    21    26 1   
    49    21    27 2   
    50    22    23 2   
    51    22    27 1   
    52    22    50 1   
    53    23    26 1   
    54    23    51 1   
    55    25    53 1   
    56    43    53 1   
    57    44    53 1   
@<TRIPOS>SUBSTRUCTURE
     1 ONC         1 TEMP              0 ****  ****    0 ROOT
