@<TRIPOS>MOLECULE
OND
   45    48     1     0     0
SMALL
bcc


@<TRIPOS>ATOM
      1 C1           2.8570    -3.3340     0.8630 c          1 OND       0.711300
      2 C2           3.2380    -2.0220     0.2810 cc         1 OND      -0.137600
      3 O1           1.7820    -3.4610     1.4310 o          1 OND      -0.595100
      4 C3           2.4940    -0.8970     0.4150 cd         1 OND      -0.050200
      5 C4           3.0820     0.2430    -0.2150 ca         1 OND      -0.077800
      6 N1           3.7380    -4.3340     0.7270 nt         1 OND      -0.671000
      7 C5           2.6200     1.5760    -0.2770 ca         1 OND       0.032000
      8 N2          -3.1790     1.3960     0.2030 ns         1 OND      -0.567900
      9 C6           1.3420     1.9940     0.2990 cc         1 OND      -0.014100
     10 S1          -0.1210     1.1430    -0.0220 ss         1 OND      -0.037800
     11 C7           1.1020     3.0950     1.0780 cd         1 OND      -0.151000
     12 C8          -0.2590     3.2420     1.4250 cd         1 OND      -0.086000
     13 C9          -1.0530     2.2650     0.8940 cc         1 OND      -0.146700
     14 C10         -2.5160     2.1630     1.0840 c          1 OND       0.708700
     15 O2          -3.0620     2.7570     2.0040 o          1 OND      -0.604100
     16 C11         -4.6150     1.1880     0.2590 c3         1 OND       0.157300
     17 C12         -4.9900    -0.1180    -0.3820 ca         1 OND      -0.193300
     18 C13         -5.6920    -0.1230    -1.5810 ca         1 OND      -0.074000
     19 C14         -6.0580    -1.3040    -2.2110 ca         1 OND      -0.182000
     20 C15         -5.7060    -2.5100    -1.6190 ca         1 OND      -0.076000
     21 C16         -5.0070    -2.5310    -0.4250 ca         1 OND      -0.207000
     22 C17         -4.6320    -1.3420     0.2150 ca         1 OND       0.183600
     23 N3          -3.8880    -1.3900     1.3710 nv         1 OND      -0.825200
     24 C18          3.4190     2.5190    -0.9030 ca         1 OND      -0.118000
     25 C19          4.6460     2.1750    -1.4790 ca         1 OND      -0.110000
     26 C20          5.1040     0.8750    -1.4520 ca         1 OND      -0.099000
     27 C21          4.3130    -0.0770    -0.8150 ca         1 OND      -0.019100
     28 S2           4.6960    -1.7510    -0.6240 ss         1 OND      -0.070500
     29 H1           1.5660    -0.8810     0.9680 ha         1 OND       0.182000
     30 H2           4.6490    -4.2300     0.3120 hn         1 OND       0.317500
     31 H3           3.5310    -5.2330     1.1310 hn         1 OND       0.317500
     32 H4          -2.7120     1.0620    -0.6250 hn         1 OND       0.321500
     33 H6           1.8860     3.7660     1.4000 ha         1 OND       0.158000
     34 H8          -0.6420     4.0450     2.0380 ha         1 OND       0.171000
     35 H11         -4.9270     1.2220     1.3060 h1         1 OND       0.054200
     36 H12         -5.1390     2.0060    -0.2420 h1         1 OND       0.054200
     37 H13         -5.9570     0.8280    -2.0280 ha         1 OND       0.127000
     38 H14         -6.6070    -1.2820    -3.1430 ha         1 OND       0.134000
     39 H15         -5.9780    -3.4470    -2.0880 ha         1 OND       0.129000
     40 H16         -4.7440    -3.4800     0.0280 ha         1 OND       0.132000
     41 H17         -3.9240    -0.5900     1.9800 hn         1 OND       0.402800
     42 H18         -3.9370    -2.2540     1.8860 hn         1 OND       0.402800
     43 H19          3.0760     3.5440    -0.9670 ha         1 OND       0.140000
     44 H20          5.2360     2.9410    -1.9630 ha         1 OND       0.137000
     45 H21          6.0480     0.6050    -1.9060 ha         1 OND       0.143000
@<TRIPOS>BOND
     1     1     2 1   
     2     1     3 2   
     3     1     6 1   
     4     2     4 2   
     5     2    28 1   
     6     4     5 1   
     7     4    29 1   
     8     5     7 ar  
     9     5    27 ar  
    10     6    30 1   
    11     6    31 1   
    12     7     9 1   
    13     7    24 ar  
    14     8    14 1   
    15     8    16 1   
    16     8    32 1   
    17     9    10 1   
    18     9    11 2   
    19    10    13 1   
    20    11    12 1   
    21    11    33 1   
    22    12    13 2   
    23    12    34 1   
    24    13    14 1   
    25    14    15 2   
    26    16    17 1   
    27    16    35 1   
    28    16    36 1   
    29    17    18 ar  
    30    17    22 ar  
    31    18    19 ar  
    32    18    37 1   
    33    19    20 ar  
    34    19    38 1   
    35    20    21 ar  
    36    20    39 1   
    37    21    22 ar  
    38    21    40 1   
    39    22    23 1   
    40    23    41 1   
    41    23    42 1   
    42    24    25 ar  
    43    24    43 1   
    44    25    26 ar  
    45    25    44 1   
    46    26    27 ar  
    47    26    45 1   
    48    27    28 1   
@<TRIPOS>SUBSTRUCTURE
     1 OND         1 TEMP              0 ****  ****    0 ROOT
