@<TRIPOS>MOLECULE
OND
   45    48     1     0     0
SMALL
No Charge or Current Charge


@<TRIPOS>ATOM
      1 C1           2.9600    -3.2800     0.9730 c          1 OND       0.644300
      2 C2           3.3420    -2.0000     0.3380 cc         1 OND      -0.137600
      3 O1           1.9270    -3.4530     1.5990 o          1 OND      -0.595100
      4 C3           2.5760    -0.8500     0.3930 cd         1 OND      -0.100200
      5 C4           3.1550     0.2970    -0.2720 ca         1 OND      -0.077800
      6 N1           3.8360    -4.2970     0.8280 nt         1 OND      -0.604000
      7 C5           2.6300     1.6010    -0.3790 ca         1 OND       0.032000
      8 N2          -3.1760     1.2860     0.4370 ns         1 OND      -0.500900
      9 C6           1.3200     1.9570     0.1610 cc         1 OND      -0.159000
     10 S1          -0.2050     1.1470    -0.1820 ss         1 OND       0.252000
     11 C7           1.1580     3.0590     0.9630 cd         1 OND      -0.133000
     12 C8          -0.1970     3.2630     1.3430 cd         1 OND      -0.068000
     13 C9          -1.0580     2.3230     0.8180 cc         1 OND      -0.291600
     14 C10         -2.5120     2.3110     1.0620 c          1 OND       0.641700
     15 O2          -3.0920     3.1340     1.7560 o          1 OND      -0.604100
     16 C11         -4.6160     1.0700     0.5130 c3         1 OND       0.157300
     17 C12         -5.0230    -0.1740    -0.2670 ca         1 OND      -0.193300
     18 C13         -5.4590    -0.0260    -1.6000 ca         1 OND      -0.056000
     19 C14         -5.8500    -1.1470    -2.3490 ca         1 OND      -0.164000
     20 C15         -5.8080    -2.4270    -1.7750 ca         1 OND      -0.058000
     21 C16         -5.3720    -2.5810    -0.4490 ca         1 OND      -0.189000
     22 C17         -4.9790    -1.4650     0.3050 ca         1 OND       0.322000
     23 N3          -4.5490    -1.6620     1.5890 nv         1 OND      -1.074000
     24 C18          3.4090     2.5730    -1.0440 ca         1 OND      -0.100000
     25 C19          4.6670     2.2390    -1.5910 ca         1 OND      -0.092000
     26 C20          5.1620     0.9260    -1.4780 ca         1 OND      -0.081000
     27 C21          4.3870    -0.0320    -0.8100 ca         1 OND      -0.146000
     28 S2           4.8600    -1.7380    -0.5650 ss         1 OND       0.056400
     29 H1           1.6310    -0.8150     0.9280 ha         1 OND       0.232000
     30 H2           4.6900    -4.1570     0.3110 hn         1 OND       0.317500
     31 H3           3.6240    -5.1920     1.2410 hn         1 OND       0.317500
     32 H4          -2.6250     0.6510    -0.1240 hn         1 OND       0.321500
     33 H6           1.9730     3.7040     1.2770 ha         1 OND       0.140000
     34 H8          -0.5170     4.0810     1.9830 ha         1 OND       0.153000
     35 H11         -4.9160     0.9830     1.5660 h1         1 OND       0.054200
     36 H12         -5.1240     1.9510     0.0990 h1         1 OND       0.054200
     37 H13         -5.4960     0.9610    -2.0570 ha         1 OND       0.109000
     38 H14         -6.1850    -1.0240    -3.3770 ha         1 OND       0.116000
     39 H15         -6.1110    -3.2960    -2.3550 ha         1 OND       0.111000
     40 H16         -5.3400    -3.5740    -0.0100 ha         1 OND       0.114000
     41 H17         -4.0640    -0.9080     2.0690 hn         1 OND       0.458000
     42 H18         -4.3680    -2.6080     1.9160 hn         1 OND       0.458000
     43 H19          3.0340     3.5890    -1.1480 ha         1 OND       0.122000
     44 H20          5.2540     2.9970    -2.1040 ha         1 OND       0.119000
     45 H21          6.1300     0.6620    -1.8990 ha         1 OND       0.125000
@<TRIPOS>BOND
     1     1     2 1   
     2     1     3 2   
     3     1     6 1   
     4     2     4 2   
     5     2    28 1   
     6     4     5 1   
     7     4    29 1   
     8     5     7 ar  
     9     5    27 ar  
    10     6    30 1   
    11     6    31 1   
    12     7     9 1   
    13     7    24 ar  
    14     8    14 1   
    15     8    16 1   
    16     8    32 1   
    17     9    10 1   
    18     9    11 2   
    19    10    13 1   
    20    11    12 1   
    21    11    33 1   
    22    12    13 2   
    23    12    34 1   
    24    13    14 1   
    25    14    15 2   
    26    16    17 1   
    27    16    35 1   
    28    16    36 1   
    29    17    18 ar  
    30    17    22 ar  
    31    18    19 ar  
    32    18    37 1   
    33    19    20 ar  
    34    19    38 1   
    35    20    21 ar  
    36    20    39 1   
    37    21    22 ar  
    38    21    40 1   
    39    22    23 1   
    40    23    41 1   
    41    23    42 1   
    42    24    25 ar  
    43    24    43 1   
    44    25    26 ar  
    45    25    44 1   
    46    26    27 ar  
    47    26    45 1   
    48    27    28 1   
@<TRIPOS>SUBSTRUCTURE
     1 OND         1 TEMP              0 ****  ****    0 ROOT
