@<TRIPOS>MOLECULE
ONF
   41    41     1     0     0
SMALL
abcg2


@<TRIPOS>ATOM
      1 O01        197.0710   172.1580   161.7030 o          1 ONF      -0.743000
      2 C02        196.6520   172.7460   162.7220 c          1 ONF       0.718000
      3 C03        195.4010   173.6230   162.5220 c3         1 ONF      -0.204400
      4 C04        195.0150   174.5300   163.6800 c3         1 ONF      -0.054400
      5 C05        193.7730   175.3630   163.3880 c3         1 ONF      -0.079400
      6 C06        193.3780   176.2870   164.5320 c3         1 ONF      -0.074400
      7 C07        192.1350   177.1140   164.2320 c3         1 ONF      -0.075400
      8 C08        191.7410   178.0540   165.3650 c3         1 ONF      -0.075400
      9 C09        190.4930   178.8690   165.0560 c3         1 ONF      -0.076400
     10 C10        190.1090   179.8250   166.1790 c3         1 ONF      -0.067400
     11 C11        188.8510   180.6110   165.8450 c3         1 ONF      -0.166400
     12 C12        188.4280   181.6040   166.8980 c          1 ONF       0.608700
     13 C13        187.2020   182.3470   166.6440 cc         1 ONF      -0.280600
     14 C14        186.3060   182.3120   165.5890 cd         1 ONF      -0.118000
     15 C15        185.2970   183.2520   165.8630 cd         1 ONF      -0.198000
     16 C16        185.6060   183.8330   167.0780 cc         1 ONF      -0.178000
     17 N17        186.7460   183.2810   167.5320 na         1 ONF      -0.067000
     18 O18        189.0710   181.7960   167.9170 o          1 ONF      -0.552100
     19 O19        197.1340   172.6740   163.8700 o          1 ONF      -0.743000
     20 H1         195.5370   174.2250   161.6160 hc         1 ONF       0.013700
     21 H2         194.5600   172.9570   162.2910 hc         1 ONF       0.013700
     22 H3         194.8440   173.9320   164.5800 hc         1 ONF       0.037200
     23 H4         195.8470   175.2000   163.9190 hc         1 ONF       0.037200
     24 H5         193.9380   175.9610   162.4840 hc         1 ONF       0.023700
     25 H6         192.9340   174.6960   163.1570 hc         1 ONF       0.023700
     26 H7         193.2100   175.6930   165.4380 hc         1 ONF       0.034700
     27 H8         194.2140   176.9580   164.7610 hc         1 ONF       0.034700
     28 H9         192.2990   177.6980   163.3200 hc         1 ONF       0.031700
     29 H10        191.2970   176.4420   164.0130 hc         1 ONF       0.031700
     30 H11        191.5800   177.4730   166.2800 hc         1 ONF       0.037700
     31 H12        192.5750   178.7320   165.5790 hc         1 ONF       0.037700
     32 H13        190.6500   179.4380   164.1330 hc         1 ONF       0.033700
     33 H14        189.6580   178.1890   164.8550 hc         1 ONF       0.033700
     34 H15        189.9610   179.2600   167.1020 hc         1 ONF       0.051200
     35 H16        190.9380   180.5120   166.3670 hc         1 ONF       0.051200
     36 H17        188.9840   181.1550   164.9030 hc         1 ONF       0.064200
     37 H18        188.0150   179.9270   165.6620 hc         1 ONF       0.064200
     38 H19        186.3760   181.6780   164.7190 ha         1 ONF       0.134000
     39 H20        184.4400   183.4840   165.2500 ha         1 ONF       0.133000
     40 H21        185.0910   184.5960   167.6380 h4         1 ONF       0.144000
     41 H22        187.2060   183.5180   168.3970 hn         1 ONF       0.361000
@<TRIPOS>BOND
     1     1     2 1   
     2     2     3 1   
     3     2    19 1   
     4     3     4 1   
     5     3    20 1   
     6     3    21 1   
     7     4     5 1   
     8     4    22 1   
     9     4    23 1   
    10     5     6 1   
    11     5    24 1   
    12     5    25 1   
    13     6     7 1   
    14     6    26 1   
    15     6    27 1   
    16     7     8 1   
    17     7    28 1   
    18     7    29 1   
    19     8     9 1   
    20     8    30 1   
    21     8    31 1   
    22     9    10 1   
    23     9    32 1   
    24     9    33 1   
    25    10    11 1   
    26    10    34 1   
    27    10    35 1   
    28    11    12 1   
    29    11    36 1   
    30    11    37 1   
    31    12    13 1   
    32    12    18 2   
    33    13    14 2   
    34    13    17 1   
    35    14    15 1   
    36    14    38 1   
    37    15    16 2   
    38    15    39 1   
    39    16    17 1   
    40    16    40 1   
    41    17    41 1   
@<TRIPOS>SUBSTRUCTURE
     1 ONF         1 TEMP              0 ****  ****    0 ROOT
