@<TRIPOS>MOLECULE
ONF
   41    41     1     0     0
SMALL
No Charge or Current Charge


@<TRIPOS>ATOM
      1 O01        197.7530   173.2180   162.4130 o          1 ONF      -0.743000
      2 C02        196.7000   172.7250   162.7870 c          1 ONF       0.718000
      3 C03        195.3920   173.4690   162.4610 c3         1 ONF      -0.204400
      4 C04        195.0570   174.4800   163.5850 c3         1 ONF      -0.054400
      5 C05        193.7530   175.2670   163.3270 c3         1 ONF      -0.079400
      6 C06        193.4220   176.2750   164.4500 c3         1 ONF      -0.074400
      7 C07        192.1180   177.0620   164.1910 c3         1 ONF      -0.075400
      8 C08        191.7870   178.0690   165.3130 c3         1 ONF      -0.075400
      9 C09        190.4830   178.8560   165.0540 c3         1 ONF      -0.076400
     10 C10        190.1520   179.8630   166.1760 c3         1 ONF      -0.067400
     11 C11        188.8440   180.6490   165.9110 c3         1 ONF      -0.166400
     12 C12        188.4420   181.6770   166.9870 c          1 ONF       0.608700
     13 C13        187.1950   182.4560   166.7780 cc         1 ONF      -0.280600
     14 C14        186.3480   182.3500   165.7010 cd         1 ONF      -0.118000
     15 C15        185.2810   183.2540   165.8720 cd         1 ONF      -0.198000
     16 C16        185.4480   183.9300   167.0480 cc         1 ONF      -0.178000
     17 N17        186.6300   183.4360   167.6060 na         1 ONF      -0.067000
     18 O18        189.1260   181.8520   167.9880 o          1 ONF      -0.552100
     19 O19        196.6310   171.6980   163.4460 o          1 ONF      -0.743000
     20 H1         195.5060   174.0640   161.5470 hc         1 ONF       0.013700
     21 H2         194.5490   172.7670   162.4280 hc         1 ONF       0.013700
     22 H3         194.9700   173.9430   164.5390 hc         1 ONF       0.037200
     23 H4         195.8890   175.1880   163.6930 hc         1 ONF       0.037200
     24 H5         193.8400   175.8060   162.3750 hc         1 ONF       0.023700
     25 H6         192.9200   174.5610   163.2210 hc         1 ONF       0.023700
     26 H7         193.3350   175.7370   165.4020 hc         1 ONF       0.034700
     27 H8         194.2540   176.9820   164.5560 hc         1 ONF       0.034700
     28 H9         192.2050   177.6000   163.2380 hc         1 ONF       0.031700
     29 H10        191.2860   176.3550   164.0850 hc         1 ONF       0.031700
     30 H11        191.7000   177.5320   166.2660 hc         1 ONF       0.037700
     31 H12        192.6190   178.7760   165.4200 hc         1 ONF       0.037700
     32 H13        190.5710   179.3940   164.1020 hc         1 ONF       0.033700
     33 H14        189.6510   178.1490   164.9480 hc         1 ONF       0.033700
     34 H15        190.0630   179.3260   167.1290 hc         1 ONF       0.051200
     35 H16        190.9830   180.5720   166.2820 hc         1 ONF       0.051200
     36 H17        188.8730   181.1720   164.9480 hc         1 ONF       0.064200
     37 H18        187.9910   179.9780   165.7600 hc         1 ONF       0.064200
     38 H19        186.4670   181.6840   164.8510 ha         1 ONF       0.134000
     39 H20        184.4560   183.3920   165.1790 ha         1 ONF       0.133000
     40 H21        184.8460   184.6970   167.5240 h4         1 ONF       0.144000
     41 H22        187.0270   183.7440   168.4910 hn         1 ONF       0.361000
@<TRIPOS>BOND
     1     1     2 1   
     2     2     3 1   
     3     2    19 1   
     4     3     4 1   
     5     3    20 1   
     6     3    21 1   
     7     4     5 1   
     8     4    22 1   
     9     4    23 1   
    10     5     6 1   
    11     5    24 1   
    12     5    25 1   
    13     6     7 1   
    14     6    26 1   
    15     6    27 1   
    16     7     8 1   
    17     7    28 1   
    18     7    29 1   
    19     8     9 1   
    20     8    30 1   
    21     8    31 1   
    22     9    10 1   
    23     9    32 1   
    24     9    33 1   
    25    10    11 1   
    26    10    34 1   
    27    10    35 1   
    28    11    12 1   
    29    11    36 1   
    30    11    37 1   
    31    12    13 1   
    32    12    18 2   
    33    13    14 2   
    34    13    17 1   
    35    14    15 1   
    36    14    38 1   
    37    15    16 2   
    38    15    39 1   
    39    16    17 1   
    40    16    40 1   
    41    17    41 1   
@<TRIPOS>SUBSTRUCTURE
     1 ONF         1 TEMP              0 ****  ****    0 ROOT
