@<TRIPOS>MOLECULE
ONG
   48    52     1     0     0
SMALL
No Charge or Current Charge


@<TRIPOS>ATOM
      1 C10        -32.1210    -8.6680   -26.2710 ca         1 ONG      -0.102300
      2 C11        -32.8330    -9.6910   -25.4330 c5         1 ONG       0.150800
      3 C12        -32.3200    -7.4360   -28.3460 ca         1 ONG      -0.089500
      4 C17        -30.7260   -13.3720   -24.8020 ca         1 ONG      -0.060000
      5 C16        -31.4000   -13.1060   -23.5950 ca         1 ONG      -0.155000
      6 C15        -30.8850    -8.0610   -25.9940 ca         1 ONG      -0.089500
      7 C14        -30.3630    -7.1310   -26.9130 ca         1 ONG      -0.108000
      8 C13        -31.0790    -6.8190   -28.0890 ca         1 ONG      -0.108000
      9 C18        -29.7400   -12.4840   -25.2650 ca         1 ONG       0.042100
     10 C19        -29.4350   -11.3160   -24.5200 ca         1 ONG       0.081100
     11 C20        -30.0950   -11.0650   -23.3070 ca         1 ONG      -0.129000
     12 C21        -31.0800   -11.9570   -22.8470 ca         1 ONG      -0.068000
     13 C22        -27.8970   -11.9900   -26.7490 c6         1 ONG       0.117600
     14 C01        -35.2030   -11.2510   -24.4170 ca         1 ONG      -0.174600
     15 C02        -36.1840   -11.1840   -23.4070 ca         1 ONG      -0.021000
     16 C03        -36.1090   -12.0310   -22.2860 ca         1 ONG      -0.209000
     17 C04        -35.0580   -12.9520   -22.1630 ca         1 ONG       0.172100
     18 C05        -34.0880   -13.0470   -23.1770 ca         1 ONG      -0.158000
     19 C06        -34.1820   -12.2180   -24.3100 ca         1 ONG      -0.044000
     20 N01        -34.0840    -9.9260   -26.2360 n          1 ONG      -0.412800
     21 O01        -36.3720    -9.9840   -26.0600 o          1 ONG      -0.600100
     22 C08        -34.1190    -9.1200   -27.5030 c5         1 ONG       0.150800
     23 C09        -32.8220    -8.3620   -27.4180 ca         1 ONG      -0.102300
     24 S01        -32.7130   -14.1930   -23.0450 ss         1 ONG       0.094000
     25 O02        -34.9880   -13.7510   -21.0600 oh         1 ONG      -0.519100
     26 O03        -29.0880   -12.7540   -26.4530 os         1 ONG      -0.326100
     27 C23        -28.1140   -10.5090   -26.3700 c6         1 ONG       0.115600
     28 O04        -28.5000   -10.4120   -24.9810 os         1 ONG      -0.327100
     29 H1         -33.0530    -9.3050   -24.4280 h1         1 ONG       0.064200
     30 H2         -32.2180   -10.5950   -25.3420 h1         1 ONG       0.064200
     31 H3         -32.8780    -7.1980   -29.2490 ha         1 ONG       0.118000
     32 H5         -30.3390    -8.3070   -25.0860 ha         1 ONG       0.118000
     33 H6         -29.4060    -6.6520   -26.7170 ha         1 ONG       0.114500
     34 H7         -30.6740    -6.0990   -28.7970 ha         1 ONG       0.114500
     35 H8         -29.8570   -10.1720   -22.7350 ha         1 ONG       0.129000
     36 H9         -31.6060   -11.7480   -21.9170 ha         1 ONG       0.131000
     37 H10        -27.6570   -12.0880   -27.8170 h1         1 ONG       0.069700
     38 H11        -27.0580   -12.3970   -26.1670 h1         1 ONG       0.069700
     39 H12        -36.9960   -10.4620   -23.4810 ha         1 ONG       0.132000
     40 H13        -36.8690   -11.9550   -21.5110 ha         1 ONG       0.119000
     41 H14        -33.4640   -12.3400   -25.1160 ha         1 ONG       0.130000
     42 H15        -34.9730    -8.4290   -27.5360 h1         1 ONG       0.064200
     43 H16        -34.1500    -9.7660   -28.3900 h1         1 ONG       0.064200
     44 H17        -35.7470   -13.5380   -20.4780 ho         1 ONG       0.469000
     45 H18        -27.1980    -9.9260   -26.5360 h1         1 ONG       0.071200
     46 H19        -28.9130   -10.0840   -26.9940 h1         1 ONG       0.071200
     47 C07        -35.2840   -10.3210   -25.6060 c          1 ONG       0.622700
     48 H4         -30.9720   -14.2550   -25.3860 ha         1 ONG       0.143000
@<TRIPOS>BOND
     1     1     2 1   
     2     1     6 ar  
     3     1    23 ar  
     4     2    20 1   
     5     2    29 1   
     6     2    30 1   
     7     3     8 ar  
     8     3    23 ar  
     9     3    31 1   
    10     4     5 ar  
    11     4     9 ar  
    12     4    48 1   
    13     5    12 ar  
    14     5    24 1   
    15     6     7 ar  
    16     6    32 1   
    17     7     8 ar  
    18     7    33 1   
    19     8    34 1   
    20     9    10 ar  
    21     9    26 1   
    22    10    11 ar  
    23    10    28 1   
    24    11    12 ar  
    25    11    35 1   
    26    12    36 1   
    27    13    26 1   
    28    13    27 1   
    29    13    37 1   
    30    13    38 1   
    31    14    15 ar  
    32    14    19 ar  
    33    14    47 1   
    34    15    16 ar  
    35    15    39 1   
    36    16    17 ar  
    37    16    40 1   
    38    17    18 ar  
    39    17    25 1   
    40    18    19 ar  
    41    18    24 1   
    42    19    41 1   
    43    20    22 1   
    44    20    47 1   
    45    21    47 2   
    46    22    23 1   
    47    22    42 1   
    48    22    43 1   
    49    25    44 1   
    50    27    28 1   
    51    27    45 1   
    52    27    46 1   
@<TRIPOS>SUBSTRUCTURE
     1 ONG         1 TEMP              0 ****  ****    0 ROOT
