@<TRIPOS>MOLECULE
ONG
   48    52     1     0     0
SMALL
abcg2


@<TRIPOS>ATOM
      1 C10        -32.3760    -8.2860   -26.0810 ca         1 ONG      -0.102300
      2 C11        -33.0000    -9.4280   -25.3450 c5         1 ONG       0.150800
      3 C12        -32.6270    -7.0390   -28.1250 ca         1 ONG      -0.089500
      4 C17        -30.5990   -13.4580   -24.5250 ca         1 ONG      -0.060000
      5 C16        -31.2190   -12.8730   -23.4300 ca         1 ONG      -0.155000
      6 C15        -31.2670    -7.5360   -25.7240 ca         1 ONG      -0.089500
      7 C14        -30.8420    -6.5280   -26.5800 ca         1 ONG      -0.108000
      8 C13        -31.5180    -6.2810   -27.7720 ca         1 ONG      -0.108000
      9 C18        -29.5720   -12.7940   -25.1850 ca         1 ONG       0.042100
     10 C19        -29.1790   -11.5210   -24.7550 ca         1 ONG       0.081100
     11 C20        -29.7990   -10.9490   -23.6500 ca         1 ONG      -0.129000
     12 C21        -30.8030   -11.6230   -22.9780 ca         1 ONG      -0.068000
     13 C22        -27.7470   -12.8260   -26.6320 c6         1 ONG       0.117600
     14 C01        -35.0990   -11.3350   -24.5930 ca         1 ONG      -0.174600
     15 C02        -36.2120   -11.3770   -23.7580 ca         1 ONG      -0.021000
     16 C03        -36.1860   -12.1200   -22.5900 ca         1 ONG      -0.209000
     17 C04        -35.0500   -12.8430   -22.2410 ca         1 ONG       0.172100
     18 C05        -33.9320   -12.8170   -23.0810 ca         1 ONG      -0.158000
     19 C06        -33.9770   -12.0820   -24.2550 ca         1 ONG      -0.044000
     20 N01        -34.1300    -9.7870   -26.2050 n          1 ONG      -0.412800
     21 O01        -36.1850   -10.6210   -26.5650 o          1 ONG      -0.600100
     22 C08        -34.2000    -8.9820   -27.4230 c5         1 ONG       0.150800
     23 C09        -33.0470    -8.0430   -27.2670 ca         1 ONG      -0.102300
     24 S01        -32.5060   -13.7440   -22.5810 ss         1 ONG       0.094000
     25 O02        -34.9580   -13.5830   -21.1250 oh         1 ONG      -0.519100
     26 O03        -28.9820   -13.4040   -26.2370 os         1 ONG      -0.326100
     27 C23        -27.8670   -11.3220   -26.6700 c6         1 ONG       0.115600
     28 O04        -28.2080   -10.8260   -25.3830 os         1 ONG      -0.327100
     29 H1         -33.3320    -9.1530   -24.3400 h1         1 ONG       0.064200
     30 H2         -32.2820   -10.2440   -25.2360 h1         1 ONG       0.064200
     31 H3         -33.1490    -6.8450   -29.0540 ha         1 ONG       0.118000
     32 H5         -30.7400    -7.7300   -24.7970 ha         1 ONG       0.118000
     33 H6         -29.9780    -5.9300   -26.3180 ha         1 ONG       0.114500
     34 H7         -31.1750    -5.4920   -28.4280 ha         1 ONG       0.114500
     35 H8         -29.4820    -9.9670   -23.3190 ha         1 ONG       0.129000
     36 H9         -31.2750   -11.1670   -22.1180 ha         1 ONG       0.131000
     37 H10        -27.5100   -13.2160   -27.6200 h1         1 ONG       0.069700
     38 H11        -26.9530   -13.1290   -25.9410 h1         1 ONG       0.069700
     39 H12        -37.1040   -10.8190   -24.0100 ha         1 ONG       0.132000
     40 H13        -37.0530   -12.1330   -21.9400 ha         1 ONG       0.119000
     41 H14        -33.1230   -12.1130   -24.9180 ha         1 ONG       0.130000
     42 H15        -35.1540    -8.4540   -27.4920 h1         1 ONG       0.064200
     43 H16        -34.1110    -9.6060   -28.3180 h1         1 ONG       0.064200
     44 H17        -35.7690   -13.5280   -20.6050 ho         1 ONG       0.469000
     45 H18        -26.9170   -10.8680   -26.9480 h1         1 ONG       0.071200
     46 H19        -28.6240   -11.0170   -27.4000 h1         1 ONG       0.071200
     47 C07        -35.1820   -10.5580   -25.8640 c          1 ONG       0.622700
     48 H4         -30.9090   -14.4320   -24.8820 ha         1 ONG       0.143000
@<TRIPOS>BOND
     1     1     2 1   
     2     1     6 ar  
     3     1    23 ar  
     4     2    20 1   
     5     2    29 1   
     6     2    30 1   
     7     3     8 ar  
     8     3    23 ar  
     9     3    31 1   
    10     4     5 ar  
    11     4     9 ar  
    12     4    48 1   
    13     5    12 ar  
    14     5    24 1   
    15     6     7 ar  
    16     6    32 1   
    17     7     8 ar  
    18     7    33 1   
    19     8    34 1   
    20     9    10 ar  
    21     9    26 1   
    22    10    11 ar  
    23    10    28 1   
    24    11    12 ar  
    25    11    35 1   
    26    12    36 1   
    27    13    26 1   
    28    13    27 1   
    29    13    37 1   
    30    13    38 1   
    31    14    15 ar  
    32    14    19 ar  
    33    14    47 1   
    34    15    16 ar  
    35    15    39 1   
    36    16    17 ar  
    37    16    40 1   
    38    17    18 ar  
    39    17    25 1   
    40    18    19 ar  
    41    18    24 1   
    42    19    41 1   
    43    20    22 1   
    44    20    47 1   
    45    21    47 2   
    46    22    23 1   
    47    22    42 1   
    48    22    43 1   
    49    25    44 1   
    50    27    28 1   
    51    27    45 1   
    52    27    46 1   
@<TRIPOS>SUBSTRUCTURE
     1 ONG         1 TEMP              0 ****  ****    0 ROOT
