@<TRIPOS>MOLECULE
ONH
   21    20     1     0     0
SMALL
bcc


@<TRIPOS>ATOM
      1 C          100.5340    39.9430   132.9740 c          1 ONH       0.929600
      2 N          100.8160    37.5040   133.3380 n8         1 ONH      -0.897800
      3 O           99.4890    39.6160   132.3750 o          1 ONH      -0.835300
      4 CA         101.2970    38.8210   133.7300 c3         1 ONH       0.023500
      5 CB         102.8070    38.9220   133.5160 c3         1 ONH      -0.047400
      6 CD         105.0970    38.0430   134.1200 c3         1 ONH       0.119800
      7 NE         105.8000    37.0100   134.8630 n7         1 ONH      -0.559700
      8 CG         103.5950    37.8830   134.3050 c3         1 ONH      -0.083400
      9 OZ         107.1880    37.2570   134.7930 oh         1 ONH      -0.462300
     10 OXT        101.0120    41.0900   133.0600 o          1 ONH      -0.835300
     11 HN         100.8800    36.8610   134.1160 hn         1 ONH       0.327800
     12 HNA         99.8350    37.5900   133.1040 hn         1 ONH       0.327800
     13 HA         101.1140    39.0160   134.8020 h1         1 ONH      -0.005300
     14 HB         103.0270    38.8090   132.4490 hc         1 ONH       0.045700
     15 HBA        103.1400    39.9220   133.8030 hc         1 ONH       0.045700
     16 HD         105.3500    37.9340   133.0620 h1         1 ONH       0.043700
     17 HDA        105.4000    39.0550   134.4220 h1         1 ONH       0.043700
     18 HG         103.3460    37.9730   135.3690 hc         1 ONH       0.034700
     19 HGA        103.3020    36.8760   133.9970 hc         1 ONH       0.034700
     20 HOZ        107.5420    36.4700   134.3680 ho         1 ONH       0.407000
     21 HNE        105.5720    37.1190   135.8460 hn         1 ONH       0.341800
@<TRIPOS>BOND
     1     1     3 1   
     2     1     4 1   
     3     1    10 1   
     4     2     4 1   
     5     2    11 1   
     6     2    12 1   
     7     4     5 1   
     8     4    13 1   
     9     5     8 1   
    10     5    14 1   
    11     5    15 1   
    12     6     7 1   
    13     6     8 1   
    14     6    16 1   
    15     6    17 1   
    16     7     9 1   
    17     7    21 1   
    18     8    18 1   
    19     8    19 1   
    20     9    20 1   
@<TRIPOS>SUBSTRUCTURE
     1 ONH         1 TEMP              0 ****  ****    0 ROOT
