@<TRIPOS>MOLECULE
ONH
   21    20     1     0     0
SMALL
No Charge or Current Charge


@<TRIPOS>ATOM
      1 C          100.4900    40.1030   133.0500 c          1 ONH       0.719000
      2 N          100.7540    37.4840   133.0280 n8         1 ONH      -1.008200
      3 O           99.4560    40.4440   133.6120 o          1 ONH      -0.730000
      4 CA         101.2330    38.8000   133.5870 c3         1 ONH       0.023500
      5 CB         102.7800    38.9190   133.4640 c3         1 ONH      -0.047400
      6 CD         105.1020    38.0640   134.1780 c3         1 ONH       0.119800
      7 NE         105.8070    37.0360   134.9730 n7         1 ONH      -0.614900
      8 CG         103.5740    37.8660   134.2770 c3         1 ONH      -0.083400
      9 OZ         107.2610    37.2800   134.8970 oh         1 ONH      -0.501300
     10 OXT        100.9650    40.7200   132.1040 o          1 ONH      -0.730000
     11 HN         101.2220    36.7180   133.5250 hn         1 ONH       0.383000
     12 HNA         99.7610    37.3620   133.2650 hn         1 ONH       0.383000
     13 HA         101.0110    38.7560   134.6620 h1         1 ONH      -0.005300
     14 HB         103.0700    38.8610   132.4070 hc         1 ONH       0.045700
     15 HBA        103.0780    39.9160   133.8150 hc         1 ONH       0.045700
     16 HD         105.4020    38.0040   133.1230 h1         1 ONH       0.043700
     17 HDA        105.3560    39.0700   134.5410 h1         1 ONH       0.043700
     18 HG         103.2700    37.9210   135.3290 hc         1 ONH       0.034700
     19 HGA        103.3240    36.8590   133.9190 hc         1 ONH       0.034700
     20 HOZ        107.6750    36.4050   134.6840 ho         1 ONH       0.446000
     21 HNE        105.5530    37.1270   135.9710 hn         1 ONH       0.397000
@<TRIPOS>BOND
     1     1     3 1   
     2     1     4 1   
     3     1    10 1   
     4     2     4 1   
     5     2    11 1   
     6     2    12 1   
     7     4     5 1   
     8     4    13 1   
     9     5     8 1   
    10     5    14 1   
    11     5    15 1   
    12     6     7 1   
    13     6     8 1   
    14     6    16 1   
    15     6    17 1   
    16     7     9 1   
    17     7    21 1   
    18     8    18 1   
    19     8    19 1   
    20     9    20 1   
@<TRIPOS>SUBSTRUCTURE
     1 ONH         1 TEMP              0 ****  ****    0 ROOT
