@<TRIPOS>MOLECULE
ONJ
   48    51     1     0     0
SMALL
bcc


@<TRIPOS>ATOM
      1 C01        -34.4130   -11.4970   -24.8440 ca         1 ONJ      -0.173600
      2 C02        -35.6250   -11.8940   -24.2920 ca         1 ONJ      -0.046000
      3 C03        -35.6560   -12.5310   -23.0630 ca         1 ONJ      -0.224000
      4 C04        -34.4750   -12.8150   -22.3870 ca         1 ONJ       0.166100
      5 C05        -33.2480   -12.4590   -22.9580 ca         1 ONJ      -0.023100
      6 C06        -33.2310   -11.7890   -24.1710 ca         1 ONJ      -0.068000
      7 C07        -34.3980   -10.8510   -26.1890 c          1 ONJ       0.688700
      8 N01        -33.7510    -9.6770   -26.3010 n          1 ONJ      -0.479800
      9 O01        -34.9540   -11.3810   -27.1430 o          1 ONJ      -0.598100
     10 C08        -33.7040    -8.9880   -27.5890 c5         1 ONJ       0.151800
     11 C09        -33.1820    -7.6360   -27.2200 ca         1 ONJ      -0.102300
     12 C10        -32.9650    -7.5520   -25.8550 ca         1 ONJ      -0.102300
     13 C11        -33.2960    -8.8480   -25.1840 c5         1 ONJ       0.151800
     14 C12        -32.9270    -6.5520   -28.0450 ca         1 ONJ      -0.108000
     15 C13        -32.4520    -5.3770   -27.4750 ca         1 ONJ      -0.125000
     16 C14        -32.2360    -5.2930   -26.1020 ca         1 ONJ      -0.125000
     17 C15        -32.4900    -6.3840   -25.2800 ca         1 ONJ      -0.108000
     18 S01        -31.7880   -12.8840   -22.0490 ss         1 ONJ      -0.167800
     19 C16        -30.5400   -12.7720   -23.3000 ca         1 ONJ      -0.028100
     20 O02        -34.4310   -13.4290   -21.1930 oh         1 ONJ      -0.481100
     21 C17        -30.4420   -13.7630   -24.2730 ca         1 ONJ      -0.080000
     22 C18        -29.4640   -13.7110   -25.2570 ca         1 ONJ      -0.086300
     23 C19        -28.5450   -12.6480   -25.2520 ca         1 ONJ      -0.049300
     24 C20        -28.6440   -11.6740   -24.2660 ca         1 ONJ      -0.141000
     25 C21        -29.6350   -11.7220   -23.2940 ca         1 ONJ      -0.084000
     26 C22        -27.4740   -12.5700   -26.2970 c3         1 ONJ      -0.051800
     27 C23        -29.3900   -14.7800   -26.3050 c3         1 ONJ      -0.047800
     28 H1         -36.5540   -11.6950   -24.8100 ha         1 ONJ       0.147000
     29 H2         -36.6070   -12.8210   -22.6290 ha         1 ONJ       0.136000
     30 H3         -32.2790   -11.5140   -24.6090 ha         1 ONJ       0.150000
     31 H4         -34.6970    -8.9330   -28.0450 h1         1 ONJ       0.063950
     32 H5         -34.0770    -8.7340   -24.4260 h1         1 ONJ       0.063950
     33 H6         -33.0950    -6.6150   -29.1130 ha         1 ONJ       0.136000
     34 H7         -32.2470    -4.5210   -28.1040 ha         1 ONJ       0.133000
     35 H8         -31.8650    -4.3720   -25.6720 ha         1 ONJ       0.133000
     36 H9         -32.3190    -6.3190   -24.2130 ha         1 ONJ       0.136000
     37 H10        -35.3170   -13.6450   -20.8780 ho         1 ONJ       0.430000
     38 H11        -31.1470   -14.5860   -24.2690 ha         1 ONJ       0.145000
     39 H12        -27.9370   -10.8520   -24.2580 ha         1 ONJ       0.132000
     40 H13        -29.7030   -10.9450   -22.5440 ha         1 ONJ       0.143000
     41 H14        -27.9000   -12.5150   -27.3010 hc         1 ONJ       0.045033
     42 H15        -26.8400   -11.6950   -26.1550 hc         1 ONJ       0.045033
     43 H16        -26.8330   -13.4540   -26.2770 hc         1 ONJ       0.045033
     44 H17        -28.4330   -15.3060   -26.2760 hc         1 ONJ       0.044033
     45 H18        -30.1800   -15.5170   -26.1720 hc         1 ONJ       0.044033
     46 H19        -29.4890   -14.3620   -27.3090 hc         1 ONJ       0.044033
     47 H20        -33.0520    -9.5110   -28.2950 h1         1 ONJ       0.063950
     48 H21        -32.4180    -9.2660   -24.6870 h1         1 ONJ       0.063950
@<TRIPOS>BOND
     1     1     2 ar  
     2     1     6 ar  
     3     1     7 1   
     4     2     3 ar  
     5     2    28 1   
     6     3     4 ar  
     7     3    29 1   
     8     4     5 ar  
     9     4    20 1   
    10     5     6 ar  
    11     5    18 1   
    12     6    30 1   
    13     7     8 1   
    14     7     9 2   
    15     8    10 1   
    16     8    13 1   
    17    10    11 1   
    18    10    31 1   
    19    10    47 1   
    20    11    12 ar  
    21    11    14 ar  
    22    12    13 1   
    23    12    17 ar  
    24    13    32 1   
    25    13    48 1   
    26    14    15 ar  
    27    14    33 1   
    28    15    16 ar  
    29    15    34 1   
    30    16    17 ar  
    31    16    35 1   
    32    17    36 1   
    33    18    19 1   
    34    19    21 ar  
    35    19    25 ar  
    36    20    37 1   
    37    21    22 ar  
    38    21    38 1   
    39    22    23 ar  
    40    22    27 1   
    41    23    24 ar  
    42    23    26 1   
    43    24    25 ar  
    44    24    39 1   
    45    25    40 1   
    46    26    41 1   
    47    26    42 1   
    48    26    43 1   
    49    27    44 1   
    50    27    45 1   
    51    27    46 1   
@<TRIPOS>SUBSTRUCTURE
     1 ONJ         1 TEMP              0 ****  ****    0 ROOT
