@<TRIPOS>MOLECULE
ONJ
   48    51     1     0     0
SMALL
No Charge or Current Charge


@<TRIPOS>ATOM
      1 C01        -34.2730   -11.4650   -24.8870 ca         1 ONJ      -0.173600
      2 C02        -35.4110   -12.1860   -24.4730 ca         1 ONJ      -0.028000
      3 C03        -35.4000   -12.9060   -23.2660 ca         1 ONJ      -0.206000
      4 C04        -34.2460   -12.9300   -22.4690 ca         1 ONJ       0.166100
      5 C05        -33.0900   -12.2440   -22.8850 ca         1 ONJ      -0.150000
      6 C06        -33.1070   -11.5160   -24.0910 ca         1 ONJ      -0.050000
      7 C07        -34.3120   -10.7100   -26.1970 c          1 ONJ       0.621700
      8 N01        -33.5190    -9.5520   -26.3370 n          1 ONJ      -0.412800
      9 O01        -34.9560   -11.1460   -27.1440 o          1 ONJ      -0.598100
     10 C08        -33.4250    -8.8590   -27.6680 c5         1 ONJ       0.151800
     11 C09        -33.1980    -7.4310   -27.2530 ca         1 ONJ      -0.102300
     12 C10        -33.1470    -7.2950   -25.8820 ca         1 ONJ      -0.102300
     13 C11        -33.3180    -8.6130   -25.1790 c5         1 ONJ       0.151800
     14 C12        -33.0540    -6.3180   -28.0970 ca         1 ONJ      -0.090000
     15 C13        -32.8540    -5.0480   -27.5190 ca         1 ONJ      -0.107000
     16 C14        -32.8010    -4.9090   -26.1160 ca         1 ONJ      -0.107000
     17 C15        -32.9480    -6.0380   -25.2870 ca         1 ONJ      -0.090000
     18 S01        -31.5950   -12.2890   -21.8900 ss         1 ONJ       0.086000
     19 C16        -30.3710   -12.5720   -23.1680 ca         1 ONJ      -0.155000
     20 O02        -34.2510   -13.6360   -21.3020 oh         1 ONJ      -0.520100
     21 C17        -30.5510   -13.5970   -24.1140 ca         1 ONJ      -0.062000
     22 C18        -29.5970   -13.8140   -25.1290 ca         1 ONJ      -0.086300
     23 C19        -28.4440   -12.9940   -25.1890 ca         1 ONJ      -0.049300
     24 C20        -28.2680   -11.9740   -24.2320 ca         1 ONJ      -0.123000
     25 C21        -29.2250   -11.7640   -23.2260 ca         1 ONJ      -0.066000
     26 C22        -27.3870   -13.1930   -26.2720 c3         1 ONJ      -0.051800
     27 C23        -29.8280   -14.9290   -26.1450 c3         1 ONJ      -0.047800
     28 H1         -36.3140   -12.1780   -25.0810 ha         1 ONJ       0.129000
     29 H2         -36.2930   -13.4440   -22.9590 ha         1 ONJ       0.118000
     30 H3         -32.1990   -11.0180   -24.4200 ha         1 ONJ       0.132000
     31 H4         -34.3480    -8.9510   -28.2560 h1         1 ONJ       0.063950
     32 H5         -34.1850    -8.5980   -24.5060 h1         1 ONJ       0.063950
     33 H6         -33.0970    -6.4330   -29.1780 ha         1 ONJ       0.118000
     34 H7         -32.7400    -4.1740   -28.1570 ha         1 ONJ       0.115000
     35 H8         -32.6450    -3.9270   -25.6740 ha         1 ONJ       0.115000
     36 H9         -32.9060    -5.9380   -24.2050 ha         1 ONJ       0.118000
     37 H10        -35.1370   -14.0410   -21.1910 ho         1 ONJ       0.469000
     38 H11        -31.4390   -14.2240   -24.0620 ha         1 ONJ       0.127000
     39 H12        -27.3870   -11.3380   -24.2670 ha         1 ONJ       0.114000
     40 H13        -29.0770   -10.9700   -22.4960 ha         1 ONJ       0.125000
     41 H14        -27.8160   -13.0600   -27.2720 hc         1 ONJ       0.045033
     42 H15        -26.5620   -12.4780   -26.1730 hc         1 ONJ       0.045033
     43 H16        -26.9540   -14.1990   -26.2200 hc         1 ONJ       0.045033
     44 H17        -29.0200   -15.6680   -26.1110 hc         1 ONJ       0.044033
     45 H18        -30.7670   -15.4630   -25.9570 hc         1 ONJ       0.044033
     46 H19        -29.8800   -14.5300   -27.1650 hc         1 ONJ       0.044033
     47 H20        -32.5850    -9.2430   -28.2620 h1         1 ONJ       0.063950
     48 H21        -32.4180    -8.8540   -24.5990 h1         1 ONJ       0.063950
@<TRIPOS>BOND
     1     1     2 ar  
     2     1     6 ar  
     3     1     7 1   
     4     2     3 ar  
     5     2    28 1   
     6     3     4 ar  
     7     3    29 1   
     8     4     5 ar  
     9     4    20 1   
    10     5     6 ar  
    11     5    18 1   
    12     6    30 1   
    13     7     8 1   
    14     7     9 2   
    15     8    10 1   
    16     8    13 1   
    17    10    11 1   
    18    10    31 1   
    19    10    47 1   
    20    11    12 ar  
    21    11    14 ar  
    22    12    13 1   
    23    12    17 ar  
    24    13    32 1   
    25    13    48 1   
    26    14    15 ar  
    27    14    33 1   
    28    15    16 ar  
    29    15    34 1   
    30    16    17 ar  
    31    16    35 1   
    32    17    36 1   
    33    18    19 1   
    34    19    21 ar  
    35    19    25 ar  
    36    20    37 1   
    37    21    22 ar  
    38    21    38 1   
    39    22    23 ar  
    40    22    27 1   
    41    23    24 ar  
    42    23    26 1   
    43    24    25 ar  
    44    24    39 1   
    45    25    40 1   
    46    26    41 1   
    47    26    42 1   
    48    26    43 1   
    49    27    44 1   
    50    27    45 1   
    51    27    46 1   
@<TRIPOS>SUBSTRUCTURE
     1 ONJ         1 TEMP              0 ****  ****    0 ROOT
