@<TRIPOS>MOLECULE
ONK
   86    85     1     0     0
SMALL
No Charge or Current Charge


@<TRIPOS>ATOM
      1 C27          6.0350    -0.3400    -0.3380 c3         1 ONK      -0.155400
      2 C1           4.7690    -0.8530    -1.0310 c          1 ONK       0.601100
      3 O1           4.7930    -1.4140    -2.1170 o          1 ONK      -0.603100
      4 C28          6.8470    -1.5010     0.2820 c3         1 ONK      -0.065400
      5 C29          8.1270    -1.0240     1.0030 c3         1 ONK      -0.078400
      6 C30          8.9390    -2.1820     1.6230 c3         1 ONK      -0.074400
      7 C31         10.2160    -1.7060     2.3420 c3         1 ONK      -0.089100
      8 N1           3.5960    -0.6020    -0.3570 ns         1 ONK      -0.506900
      9 C2           2.2470    -1.0220    -0.8000 c3         1 ONK       0.040700
     10 C5           1.1740    -0.1220    -0.1140 c          1 ONK       0.594100
     11 O3           1.3870     0.4890     0.9270 o          1 ONK      -0.623100
     12 C3           2.0340    -2.5510    -0.5420 c3         1 ONK      -0.069700
     13 C4           0.7560    -3.1100    -1.2130 c3         1 ONK      -0.090600
     14 C26          2.0810    -2.9270     0.9600 c3         1 ONK      -0.090600
     15 C10         -2.5090    -0.0650    -0.5880 c          1 ONK       0.589100
     16 C9          -0.0950     4.4800    -1.2310 c          1 ONK       0.605100
     17 N2          -0.0330    -0.0300    -0.7760 ns         1 ONK      -0.491900
     18 O7          -1.0680     4.8690    -1.8650 o          1 ONK      -0.604100
     19 N5           0.9990     5.3460    -0.9960 n          1 ONK      -0.410800
     20 C24          0.9750     6.7320    -1.5180 c3         1 ONK       0.083300
     21 C25          2.1960     4.9130    -0.2350 c3         1 ONK       0.083300
     22 C6          -1.2090     0.7410    -0.3090 c3         1 ONK       0.021700
     23 C7          -1.2650     2.1460    -0.9680 c3         1 ONK      -0.074400
     24 N3          -3.6160     0.3450     0.1290 ns         1 ONK      -0.507900
     25 C11         -4.9210    -0.3460     0.1440 c3         1 ONK       0.069700
     26 C16         -6.0380     0.5390    -0.4920 c3         1 ONK       0.199500
     27 O6          -5.6380     0.9650    -1.7990 oh         1 ONK      -0.643000
     28 C17         -7.4140    -0.1280    -0.5640 c2         1 ONK      -0.103400
     29 C23         -7.4750    -1.4050    -1.3930 c3         1 ONK      -0.055900
     30 C18         -8.4960     0.3750     0.0530 c2         1 ONK      -0.310000
     31 C12         -5.2680    -0.7980     1.5900 c3         1 ONK      -0.089400
     32 C13         -4.2170    -1.7100     2.2860 c3         1 ONK      -0.056700
     33 C15         -4.6110    -1.9780     3.7560 c3         1 ONK      -0.091600
     34 C14         -3.9870    -3.0420     1.5320 c3         1 ONK      -0.091600
     35 H40          6.6620     0.1670    -1.0800 hc         1 ONK       0.055700
     36 H41          5.7660     0.3600     0.4630 hc         1 ONK       0.055700
     37 H42          6.2130    -2.0440     0.9950 hc         1 ONK       0.055700
     38 H43          7.1210    -2.2120    -0.5070 hc         1 ONK       0.055700
     39 H44          8.7610    -0.4810     0.2900 hc         1 ONK       0.034700
     40 H45          7.8530    -0.3140     1.7930 hc         1 ONK       0.034700
     41 H46          8.3100    -2.7260     2.3370 hc         1 ONK       0.040200
     42 H47          9.2180    -2.8930     0.8350 hc         1 ONK       0.040200
     43 H48         10.8850    -1.1880     1.6440 hc         1 ONK       0.031367
     44 H49          9.9680    -1.0190     3.1600 hc         1 ONK       0.031367
     45 H50         10.7580    -2.5610     2.7640 hc         1 ONK       0.031367
     46 H39          3.6720    -0.1050     0.5240 hn         1 ONK       0.330500
     47 H31          2.1740    -0.8350    -1.8800 h1         1 ONK       0.085700
     48 H32          2.8730    -3.0710    -1.0220 hc         1 ONK       0.066700
     49 H36          0.7490    -4.2060    -1.1650 hc         1 ONK       0.039200
     50 H37         -0.1500    -2.7500    -0.7120 hc         1 ONK       0.039200
     51 H38          0.7110    -2.8220    -2.2700 hc         1 ONK       0.039200
     52 H33          1.2540    -2.4630     1.5100 hc         1 ONK       0.039200
     53 H34          2.0030    -4.0140     1.0860 hc         1 ONK       0.039200
     54 H35          3.0240    -2.6070     1.4190 hc         1 ONK       0.039200
     55 H7           0.8950     2.5880    -1.0360 hc         1 ONK       0.064700
     56 H8           0.1650     3.1070     0.4040 hc         1 ONK       0.064700
     57 H30         -0.1370    -0.5880    -1.6160 hn         1 ONK       0.339500
     58 H4           0.8800     6.7130    -2.6120 h1         1 ONK       0.042200
     59 H5           0.1180     7.2710    -1.0940 h1         1 ONK       0.042200
     60 H6           1.8950     7.2690    -1.2540 h1         1 ONK       0.042200
     61 H1           1.9050     4.6140     0.7800 h1         1 ONK       0.042200
     62 H2           2.6750     4.0660    -0.7410 h1         1 ONK       0.042200
     63 H3           2.9260     5.7290    -0.1590 h1         1 ONK       0.042200
     64 H11         -1.1450     0.8620     0.7810 h1         1 ONK       0.083700
     65 H9          -2.1660     2.6650    -0.6180 hc         1 ONK       0.070200
     66 H10         -1.3730     2.0300    -2.0540 hc         1 ONK       0.070200
     67 H12         -3.4790     1.1170     0.7720 hn         1 ONK       0.311500
     68 H13         -4.8410    -1.2500    -0.4730 h1         1 ONK       0.099700
     69 H14         -6.1310     1.4290     0.1460 h1         1 ONK       0.026700
     70 H15         -4.6800     1.1590    -1.7350 ho         1 ONK       0.446000
     71 H16         -8.4990    -1.7930    -1.4560 hc         1 ONK       0.046367
     72 H17         -7.1300    -1.2350    -2.4200 hc         1 ONK       0.046367
     73 H18         -6.8580    -2.1990    -0.9580 hc         1 ONK       0.046367
     74 H19         -9.4710    -0.1090    -0.0090 ha         1 ONK       0.165500
     75 H20         -8.4460     1.2920     0.6420 ha         1 ONK       0.165500
     76 H21         -5.4190     0.0990     2.2040 hc         1 ONK       0.048700
     77 H22         -6.2300    -1.3260     1.5790 hc         1 ONK       0.048700
     78 H23         -3.2590    -1.1760     2.3100 hc         1 ONK       0.043700
     79 H24         -5.5630    -2.5200     3.8140 hc         1 ONK       0.035700
     80 H25         -3.8440    -2.5770     4.2620 hc         1 ONK       0.035700
     81 H26         -4.7190    -1.0360     4.3080 hc         1 ONK       0.035700
     82 H27         -3.5790    -2.8670     0.5310 hc         1 ONK       0.035700
     83 H28         -3.2720    -3.6730     2.0720 hc         1 ONK       0.035700
     84 H29         -4.9260    -3.6000     1.4300 hc         1 ONK       0.035700
     85 O2          -2.5570    -0.9970    -1.3810 o          1 ONK      -0.593100
     86 C8          -0.0330     3.0430    -0.6720 c3         1 ONK      -0.155400
@<TRIPOS>BOND
     1     1     2 1   
     2     1     4 1   
     3     1    35 1   
     4     1    36 1   
     5     2     3 2   
     6     2     8 1   
     7     4     5 1   
     8     4    37 1   
     9     4    38 1   
    10     5     6 1   
    11     5    39 1   
    12     5    40 1   
    13     6     7 1   
    14     6    41 1   
    15     6    42 1   
    16     7    43 1   
    17     7    44 1   
    18     7    45 1   
    19     8     9 1   
    20     8    46 1   
    21     9    10 1   
    22     9    12 1   
    23     9    47 1   
    24    10    11 2   
    25    10    17 1   
    26    12    13 1   
    27    12    14 1   
    28    12    48 1   
    29    13    49 1   
    30    13    50 1   
    31    13    51 1   
    32    14    52 1   
    33    14    53 1   
    34    14    54 1   
    35    15    22 1   
    36    15    24 1   
    37    15    85 2   
    38    16    18 2   
    39    16    19 1   
    40    16    86 1   
    41    17    22 1   
    42    17    57 1   
    43    19    20 1   
    44    19    21 1   
    45    20    58 1   
    46    20    59 1   
    47    20    60 1   
    48    21    61 1   
    49    21    62 1   
    50    21    63 1   
    51    22    23 1   
    52    22    64 1   
    53    23    65 1   
    54    23    66 1   
    55    23    86 1   
    56    24    25 1   
    57    24    67 1   
    58    25    26 1   
    59    25    31 1   
    60    25    68 1   
    61    26    27 1   
    62    26    28 1   
    63    26    69 1   
    64    27    70 1   
    65    28    29 1   
    66    28    30 2   
    67    29    71 1   
    68    29    72 1   
    69    29    73 1   
    70    30    74 1   
    71    30    75 1   
    72    31    32 1   
    73    31    76 1   
    74    31    77 1   
    75    32    33 1   
    76    32    34 1   
    77    32    78 1   
    78    33    79 1   
    79    33    80 1   
    80    33    81 1   
    81    34    82 1   
    82    34    83 1   
    83    34    84 1   
    84    55    86 1   
    85    56    86 1   
@<TRIPOS>SUBSTRUCTURE
     1 ONK         1 TEMP              0 ****  ****    0 ROOT
