@<TRIPOS>MOLECULE
ONK
   86    85     1     0     0
SMALL
bcc


@<TRIPOS>ATOM
      1 C27          5.5150    -0.6680     0.6380 c3         1 ONK      -0.155400
      2 C1           4.3090    -1.2780    -0.0450 c          1 ONK       0.668100
      3 O1           4.3730    -1.8410    -1.1290 o          1 ONK      -0.603100
      4 C28          6.8490    -1.2090     0.1490 c3         1 ONK      -0.065400
      5 C29          8.0220    -0.5310     0.8450 c3         1 ONK      -0.078400
      6 C30          9.3770    -1.0340     0.3630 c3         1 ONK      -0.074400
      7 C31         10.5430    -0.3480     1.0610 c3         1 ONK      -0.089100
      8 N1           3.1550    -1.1190     0.6300 ns         1 ONK      -0.573900
      9 C2           1.8620    -1.5060     0.1210 c3         1 ONK       0.040700
     10 C5           0.8670    -0.4170     0.5010 c          1 ONK       0.661100
     11 O3           0.9240     0.1500     1.5830 o          1 ONK      -0.623100
     12 C3           1.4270    -2.9010     0.6260 c3         1 ONK      -0.069700
     13 C4           0.0960    -3.3400     0.0230 c3         1 ONK      -0.090600
     14 C26          1.3940    -3.0100     2.1450 c3         1 ONK      -0.090600
     15 C10         -2.4450     0.0620    -0.6340 c          1 ONK       0.656100
     16 C9           0.4460     4.0500    -1.6130 c          1 ONK       0.672100
     17 N2          -0.0570    -0.1510    -0.4330 ns         1 ONK      -0.558900
     18 O7          -0.3540     4.3330    -2.4970 o          1 ONK      -0.604100
     19 N5           1.5300     4.8140    -1.3510 n          1 ONK      -0.477800
     20 C24          1.7350     6.0650    -2.0480 c3         1 ONK       0.083300
     21 C25          2.4420     4.5830    -0.2510 c3         1 ONK       0.083300
     22 C6          -1.1490     0.7770    -0.2610 c3         1 ONK       0.021700
     23 C7          -0.9860     2.0220    -1.1390 c3         1 ONK      -0.074400
     24 N3          -3.4870     0.3430     0.1650 ns         1 ONK      -0.574900
     25 C11         -4.8160    -0.2260     0.0310 c3         1 ONK       0.069700
     26 C16         -5.8220     0.9160    -0.2090 c3         1 ONK       0.176300
     27 O6          -5.4570     1.6800    -1.3380 oh         1 ONK      -0.580800
     28 C17         -7.2180     0.4000    -0.4520 c2         1 ONK      -0.103400
     29 C23         -7.4030    -0.5730    -1.5790 c3         1 ONK      -0.055900
     30 C18         -8.2250     0.8080     0.3150 c2         1 ONK      -0.210000
     31 C12         -5.1750    -1.0480     1.2650 c3         1 ONK      -0.089400
     32 C13         -4.2380    -2.2200     1.5650 c3         1 ONK      -0.056700
     33 C15         -4.6320    -2.8650     2.8890 c3         1 ONK      -0.091600
     34 C14         -4.2370    -3.2570     0.4460 c3         1 ONK      -0.091600
     35 H40          5.4710     0.4140     0.4690 hc         1 ONK       0.055700
     36 H41          5.4280    -0.7990     1.7210 hc         1 ONK       0.055700
     37 H42          6.8980    -2.2880     0.3200 hc         1 ONK       0.055700
     38 H43          6.9340    -1.0640    -0.9300 hc         1 ONK       0.055700
     39 H44          7.9610     0.5520     0.6860 hc         1 ONK       0.034700
     40 H45          7.9430    -0.6810     1.9270 hc         1 ONK       0.034700
     41 H46          9.4390    -2.1150     0.5220 hc         1 ONK       0.040200
     42 H47          9.4540    -0.8830    -0.7180 hc         1 ONK       0.040200
     43 H48         10.5230     0.7310     0.8930 hc         1 ONK       0.031367
     44 H49         10.5080    -0.5110     2.1400 hc         1 ONK       0.031367
     45 H50         11.5020    -0.7210     0.7010 hc         1 ONK       0.031367
     46 H39          3.1740    -0.6390     1.5160 hn         1 ONK       0.330500
     47 H31          1.9390    -1.5620    -0.9670 h1         1 ONK       0.085700
     48 H32          2.2010    -3.5800     0.2540 hc         1 ONK       0.066700
     49 H36         -0.0800    -4.3950     0.2350 hc         1 ONK       0.039200
     50 H37         -0.7460    -2.7840     0.4410 hc         1 ONK       0.039200
     51 H38          0.0730    -3.2170    -1.0620 hc         1 ONK       0.039200
     52 H33          0.6080    -2.3900     2.5790 hc         1 ONK       0.039200
     53 H34          1.1940    -4.0420     2.4380 hc         1 ONK       0.039200
     54 H35          2.3420    -2.7230     2.5990 hc         1 ONK       0.039200
     55 H7           1.1440     2.1660    -0.8720 hc         1 ONK       0.064700
     56 H8           0.2200     3.0850     0.2900 hc         1 ONK       0.064700
     57 H30         -0.0230    -0.6470    -1.3100 hn         1 ONK       0.339500
     58 H4           1.0440     6.1590    -2.8790 h1         1 ONK       0.042200
     59 H5           1.5890     6.9130    -1.3750 h1         1 ONK       0.042200
     60 H6           2.7550     6.1130    -2.4330 h1         1 ONK       0.042200
     61 H1           2.1830     5.1920     0.6200 h1         1 ONK       0.042200
     62 H2           2.4620     3.5410     0.0540 h1         1 ONK       0.042200
     63 H3           3.4520     4.8500    -0.5610 h1         1 ONK       0.042200
     64 H11         -1.1680     1.0770     0.7880 h1         1 ONK       0.083700
     65 H9          -1.8710     2.6510    -1.0180 hc         1 ONK       0.070200
     66 H10         -0.9520     1.7190    -2.1870 hc         1 ONK       0.070200
     67 H12         -3.3080     0.8930     0.9930 hn         1 ONK       0.311500
     68 H13         -4.7980    -0.8620    -0.8550 h1         1 ONK       0.099700
     69 H14         -5.8350     1.5430     0.6960 h1         1 ONK       0.026700
     70 H15         -4.5620     2.0100    -1.1980 ho         1 ONK       0.407000
     71 H16         -8.4580    -0.7420    -1.7870 hc         1 ONK       0.046367
     72 H17         -6.9260    -0.2230    -2.4950 hc         1 ONK       0.046367
     73 H18         -6.9580    -1.5430    -1.3410 hc         1 ONK       0.046367
     74 H19         -9.2380     0.4590     0.1560 ha         1 ONK       0.115500
     75 H20         -8.0730     1.5060     1.1290 ha         1 ONK       0.115500
     76 H21         -5.2120    -0.3800     2.1340 hc         1 ONK       0.048700
     77 H22         -6.1920    -1.4330     1.1430 hc         1 ONK       0.048700
     78 H23         -3.2190    -1.8310     1.6730 hc         1 ONK       0.043700
     79 H24         -5.6460    -3.2710     2.8390 hc         1 ONK       0.035700
     80 H25         -3.9610    -3.6870     3.1440 hc         1 ONK       0.035700
     81 H26         -4.6030    -2.1470     3.7110 hc         1 ONK       0.035700
     82 H27         -3.8490    -2.8590    -0.4920 hc         1 ONK       0.035700
     83 H28         -3.6130    -4.1120     0.7150 hc         1 ONK       0.035700
     84 H29         -5.2460    -3.6320     0.2600 hc         1 ONK       0.035700
     85 O2          -2.4960    -0.6660    -1.6120 o          1 ONK      -0.593100
     86 C8           0.2630     2.8040    -0.7670 c3         1 ONK      -0.155400
@<TRIPOS>BOND
     1     1     2 1   
     2     1     4 1   
     3     1    35 1   
     4     1    36 1   
     5     2     3 2   
     6     2     8 1   
     7     4     5 1   
     8     4    37 1   
     9     4    38 1   
    10     5     6 1   
    11     5    39 1   
    12     5    40 1   
    13     6     7 1   
    14     6    41 1   
    15     6    42 1   
    16     7    43 1   
    17     7    44 1   
    18     7    45 1   
    19     8     9 1   
    20     8    46 1   
    21     9    10 1   
    22     9    12 1   
    23     9    47 1   
    24    10    11 2   
    25    10    17 1   
    26    12    13 1   
    27    12    14 1   
    28    12    48 1   
    29    13    49 1   
    30    13    50 1   
    31    13    51 1   
    32    14    52 1   
    33    14    53 1   
    34    14    54 1   
    35    15    22 1   
    36    15    24 1   
    37    15    85 2   
    38    16    18 2   
    39    16    19 1   
    40    16    86 1   
    41    17    22 1   
    42    17    57 1   
    43    19    20 1   
    44    19    21 1   
    45    20    58 1   
    46    20    59 1   
    47    20    60 1   
    48    21    61 1   
    49    21    62 1   
    50    21    63 1   
    51    22    23 1   
    52    22    64 1   
    53    23    65 1   
    54    23    66 1   
    55    23    86 1   
    56    24    25 1   
    57    24    67 1   
    58    25    26 1   
    59    25    31 1   
    60    25    68 1   
    61    26    27 1   
    62    26    28 1   
    63    26    69 1   
    64    27    70 1   
    65    28    29 1   
    66    28    30 2   
    67    29    71 1   
    68    29    72 1   
    69    29    73 1   
    70    30    74 1   
    71    30    75 1   
    72    31    32 1   
    73    31    76 1   
    74    31    77 1   
    75    32    33 1   
    76    32    34 1   
    77    32    78 1   
    78    33    79 1   
    79    33    80 1   
    80    33    81 1   
    81    34    82 1   
    82    34    83 1   
    83    34    84 1   
    84    55    86 1   
    85    56    86 1   
@<TRIPOS>SUBSTRUCTURE
     1 ONK         1 TEMP              0 ****  ****    0 ROOT
