@<TRIPOS>MOLECULE
ONL
   20    19     1     0     0
SMALL
abcg2


@<TRIPOS>ATOM
      1 N           76.9440    15.7950    32.0240 n8         1 ONL      -1.003200
      2 CA          75.5310    15.9880    32.3350 c3         1 ONL       0.007500
      3 C           74.7070    16.6950    31.2270 c          1 ONL       0.692000
      4 O           73.4660    16.6320    31.3470 o          1 ONL      -0.734500
      5 OXT         75.3410    17.2870    30.3300 o          1 ONL      -0.734500
      6 CB          75.3780    16.7430    33.6620 c3         1 ONL      -0.027400
      7 CG          76.0090    18.1260    33.6360 c3         1 ONL      -0.173400
      8 CD          75.9460    18.8820    34.9380 c          1 ONL       0.571100
      9 OD          75.3460    18.4680    35.9050 o          1 ONL      -0.550100
     10 CE          76.6940    20.1890    34.9640 c3         1 ONL      -0.206100
     11 HN1         77.0360    14.9840    31.4240 hn         1 ONL       0.381000
     12 HN2         77.2290    16.5710    31.4360 hn         1 ONL       0.381000
     13 HA          75.0880    14.9990    32.4920 h1         1 ONL       0.035700
     14 HB1         74.3180    16.8190    33.9100 hc         1 ONL       0.036700
     15 HB2         75.8440    16.1510    34.4540 hc         1 ONL       0.036700
     16 HG1         77.0620    18.0660    33.3400 hc         1 ONL       0.071200
     17 HG2         75.5420    18.7640    32.8760 hc         1 ONL       0.071200
     18 HE1         76.4500    20.7740    35.8480 hc         1 ONL       0.048700
     19 HE2         77.7670    19.9870    34.9630 hc         1 ONL       0.048700
     20 HE3         76.4870    20.7770    34.0690 hc         1 ONL       0.048700
@<TRIPOS>BOND
     1     1     2 1   
     2     1    11 1   
     3     1    12 1   
     4     2     3 1   
     5     2     6 1   
     6     2    13 1   
     7     3     4 1   
     8     3     5 1   
     9     6     7 1   
    10     6    14 1   
    11     6    15 1   
    12     7     8 1   
    13     7    16 1   
    14     7    17 1   
    15     8     9 2   
    16     8    10 1   
    17    10    18 1   
    18    10    19 1   
    19    10    20 1   
@<TRIPOS>SUBSTRUCTURE
     1 ONL         1 TEMP              0 ****  ****    0 ROOT
