@<TRIPOS>MOLECULE
ONL
   20    19     1     0     0
SMALL
No Charge or Current Charge


@<TRIPOS>ATOM
      1 N           77.0950    16.0950    31.8150 n8         1 ONL      -1.003200
      2 CA          75.7030    16.0370    32.3950 c3         1 ONL       0.007500
      3 C           74.4980    16.2670    31.3890 c          1 ONL       0.692000
      4 O           73.4680    15.6300    31.5670 o          1 ONL      -0.734500
      5 OXT         74.6830    16.9700    30.4030 o          1 ONL      -0.734500
      6 CB          75.5830    16.9630    33.6380 c3         1 ONL      -0.027400
      7 CG          75.7420    18.4790    33.3480 c3         1 ONL      -0.173400
      8 CD          75.6100    19.3030    34.6340 c          1 ONL       0.571100
      9 OD          74.5170    19.6220    35.0860 o          1 ONL      -0.550100
     10 CE          76.9110    19.7040    35.3310 c3         1 ONL      -0.206100
     11 HN1         77.1680    15.4010    31.0600 hn         1 ONL       0.381000
     12 HN2         77.1920    16.9850    31.3120 hn         1 ONL       0.381000
     13 HA          75.5800    15.0100    32.7670 h1         1 ONL       0.035700
     14 HB1         74.6060    16.7910    34.1070 hc         1 ONL       0.036700
     15 HB2         76.3340    16.6600    34.3790 hc         1 ONL       0.036700
     16 HG1         76.7390    18.6390    32.9230 hc         1 ONL       0.071200
     17 HG2         74.9660    18.7950    32.6420 hc         1 ONL       0.071200
     18 HE1         76.7410    20.2530    36.2640 hc         1 ONL       0.048700
     19 HE2         77.5240    18.8090    35.4890 hc         1 ONL       0.048700
     20 HE3         77.5240    20.2830    34.6310 hc         1 ONL       0.048700
@<TRIPOS>BOND
     1     1     2 1   
     2     1    11 1   
     3     1    12 1   
     4     2     3 1   
     5     2     6 1   
     6     2    13 1   
     7     3     4 1   
     8     3     5 1   
     9     6     7 1   
    10     6    14 1   
    11     6    15 1   
    12     7     8 1   
    13     7    16 1   
    14     7    17 1   
    15     8     9 2   
    16     8    10 1   
    17    10    18 1   
    18    10    19 1   
    19    10    20 1   
@<TRIPOS>SUBSTRUCTURE
     1 ONL         1 TEMP              0 ****  ****    0 ROOT
