@<TRIPOS>MOLECULE
ONN
   69    71     1     0     0
SMALL
abcg2


@<TRIPOS>ATOM
      1 C14         28.3380     0.7730    56.6900 c3         1 ONN       0.026700
      2 C11         27.2230    -0.8500    58.1450 c          1 ONN       0.595100
      3 C2          26.9190    -4.6790    60.2300 ca         1 ONN      -0.122300
      4 C4          25.6460    -6.3860    59.0650 ca         1 ONN      -0.170500
      5 C5          24.5400    -6.1380    59.8770 ca         1 ONN       0.140100
      6 C6          24.6280    -5.1640    60.8660 ca         1 ONN      -0.170500
      7 C1          28.1910    -3.8930    60.3900 c3         1 ONN      -0.040100
      8 C10         27.3900    -1.7070    59.3860 c3         1 ONN      -0.177400
      9 C15         29.7000     1.4640    56.6250 c3         1 ONN       0.051600
     10 C16         27.9620     0.2510    55.2950 c          1 ONN       0.599100
     11 C19         29.2880    -1.8790    55.5360 c3         1 ONN       0.182300
     12 C20         30.0250    -2.7440    54.5470 ca         1 ONN      -0.121300
     13 C21         29.3660    -3.7240    53.7920 ca         1 ONN       0.015700
     14 C22         30.1240    -4.5160    52.9300 ca         1 ONN      -0.118000
     15 C23         31.4930    -4.3480    52.7980 ca         1 ONN      -0.108000
     16 C24         32.1400    -3.3700    53.5400 ca         1 ONN      -0.146000
     17 C25         31.4010    -2.5790    54.4060 ca         1 ONN      -0.109000
     18 C26         27.8820    -3.9530    53.8490 c3         1 ONN      -0.201100
     19 C27         27.1030    -3.1960    52.7420 c          1 ONN       0.730000
     20 C3          26.8110    -5.6620    59.2460 ca         1 ONN      -0.065000
     21 C31         30.5410    -1.8860    60.0750 c          1 ONN       0.564100
     22 C32         32.0250    -1.6910    59.7010 c3         1 ONN       0.100500
     23 C35         32.5820    -0.3610    60.2240 c3         1 ONN      -0.045400
     24 C36         32.2360     0.8750    59.4040 c3         1 ONN       0.053600
     25 C7          25.8070    -4.4490    61.0330 ca         1 ONN      -0.065000
     26 C9          28.3860    -2.8690    59.2560 c3         1 ONN       0.130700
     27 N13         28.3340    -0.2130    57.7370 ns         1 ONN      -0.512900
     28 N18         28.4440    -0.9170    54.8540 ns         1 ONN      -0.509900
     29 N30         29.7720    -2.4420    59.1230 ns         1 ONN      -0.513900
     30 N34         32.4080    -1.8920    58.3220 n8         1 ONN      -1.039200
     31 O12         26.1540    -0.7240    57.5650 o          1 ONN      -0.576100
     32 O17         27.2590     0.9670    54.5890 o          1 ONN      -0.603100
     33 O28         26.1900    -3.8090    52.1740 o          1 ONN      -0.703000
     34 O29         27.4510    -2.0080    52.5260 o          1 ONN      -0.703000
     35 O33         30.1350    -1.5890    61.1900 o          1 ONN      -0.598100
     36 O8          23.4250    -6.8660    59.6610 oh         1 ONN      -0.533100
     37 S37         30.4660     1.2800    59.6000 ss         1 ONN      -0.246000
     38 S38         30.0730     2.5570    58.0360 ss         1 ONN      -0.245000
     39 H1          27.5850     1.5360    56.9050 h1         1 ONN       0.093700
     40 H2          25.5870    -7.1460    58.2960 ha         1 ONN       0.120500
     41 H3          23.7800    -4.9590    61.5110 ha         1 ONN       0.120500
     42 H4          29.0470    -4.5730    60.3760 hc         1 ONN       0.058200
     43 H5          28.2010    -3.3870    61.3560 hc         1 ONN       0.058200
     44 H6          27.6770    -1.0730    60.2290 hc         1 ONN       0.082700
     45 H7          26.4100    -2.1220    59.6180 hc         1 ONN       0.082700
     46 H8          29.7210     2.1390    55.7670 h1         1 ONN       0.086700
     47 H9          30.5200     0.7550    56.4970 h1         1 ONN       0.086700
     48 H10         28.6980    -2.5140    56.2030 h1         1 ONN       0.009700
     49 H11         30.0230    -1.3710    56.1580 h1         1 ONN       0.009700
     50 H12         29.6250    -5.2850    52.3510 ha         1 ONN       0.117000
     51 H13         32.0530    -4.9810    52.1220 ha         1 ONN       0.096000
     52 H14         33.2090    -3.2280    53.4500 ha         1 ONN       0.095000
     53 H15         31.9040    -1.8200    54.9960 ha         1 ONN       0.086000
     54 H16         27.4720    -3.6390    54.8150 hc         1 ONN       0.040700
     55 H17         27.6750    -5.0200    53.7660 hc         1 ONN       0.040700
     56 H18         27.6600    -5.8720    58.6040 ha         1 ONN       0.112500
     57 H19         32.5340    -2.4690    60.2820 h1         1 ONN       0.072700
     58 H20         33.6700    -0.4430    60.2170 hc         1 ONN       0.065200
     59 H21         32.2950    -0.2180    61.2670 hc         1 ONN       0.065200
     60 H22         32.4460     0.7220    58.3460 h1         1 ONN       0.068700
     61 H23         32.8260     1.7250    59.7440 h1         1 ONN       0.068700
     62 H24         25.8550    -3.6940    61.8090 ha         1 ONN       0.112500
     63 H25         28.1740    -3.3890    58.3190 h1         1 ONN       0.066700
     64 H26         29.1800    -0.3420    58.2700 hn         1 ONN       0.320500
     65 H27         28.0910    -1.2280    53.9300 hn         1 ONN       0.408500
     66 H28         30.2350    -2.7180    58.2730 hn         1 ONN       0.309500
     67 H29         32.3710    -2.8620    58.0420 hn         1 ONN       0.418500
     68 H30         31.8580    -1.3500    57.6690 hn         1 ONN       0.418500
     69 H33         22.7300    -6.6060    60.2770 ho         1 ONN       0.460000
@<TRIPOS>BOND
     1     1     9 1   
     2     1    10 1   
     3     1    27 1   
     4     1    39 1   
     5     2     8 1   
     6     2    27 1   
     7     2    31 2   
     8     3     7 1   
     9     3    20 ar  
    10     3    25 ar  
    11     4     5 ar  
    12     4    20 ar  
    13     4    40 1   
    14     5     6 ar  
    15     5    36 1   
    16     6    25 ar  
    17     6    41 1   
    18     7    26 1   
    19     7    42 1   
    20     7    43 1   
    21     8    26 1   
    22     8    44 1   
    23     8    45 1   
    24     9    38 1   
    25     9    46 1   
    26     9    47 1   
    27    10    28 1   
    28    10    32 2   
    29    11    12 1   
    30    11    28 1   
    31    11    48 1   
    32    11    49 1   
    33    12    13 ar  
    34    12    17 ar  
    35    13    14 ar  
    36    13    18 1   
    37    14    15 ar  
    38    14    50 1   
    39    15    16 ar  
    40    15    51 1   
    41    16    17 ar  
    42    16    52 1   
    43    17    53 1   
    44    18    19 1   
    45    18    54 1   
    46    18    55 1   
    47    19    33 1   
    48    19    34 1   
    49    20    56 1   
    50    21    22 1   
    51    21    29 1   
    52    21    35 2   
    53    22    23 1   
    54    22    30 1   
    55    22    57 1   
    56    23    24 1   
    57    23    58 1   
    58    23    59 1   
    59    24    37 1   
    60    24    60 1   
    61    24    61 1   
    62    25    62 1   
    63    26    29 1   
    64    26    63 1   
    65    27    64 1   
    66    28    65 1   
    67    29    66 1   
    68    30    67 1   
    69    30    68 1   
    70    36    69 1   
    71    37    38 1   
@<TRIPOS>SUBSTRUCTURE
     1 ONN         1 TEMP              0 ****  ****    0 ROOT
