@<TRIPOS>MOLECULE
ONN
   69    71     1     0     0
SMALL
No Charge or Current Charge


@<TRIPOS>ATOM
      1 C14         28.1340     0.7650    56.6030 c3         1 ONN       0.026700
      2 C11         27.1480    -0.9920    58.1700 c          1 ONN       0.595100
      3 C2          26.5510    -4.5990    60.4940 ca         1 ONN      -0.122300
      4 C4          24.8510    -6.0410    59.5020 ca         1 ONN      -0.170500
      5 C5          23.9490    -5.6820    60.5140 ca         1 ONN       0.140100
      6 C6          24.3430    -4.7850    61.5190 ca         1 ONN      -0.170500
      7 C1          27.9600    -4.0130    60.4790 c3         1 ONN      -0.040100
      8 C10         27.3900    -1.6810    59.5090 c3         1 ONN      -0.177400
      9 C15         29.4800     1.5220    56.4440 c3         1 ONN       0.051600
     10 C16         27.8060     0.0360    55.2570 c          1 ONN       0.599100
     11 C19         29.2800    -1.9840    55.6460 c3         1 ONN       0.182300
     12 C20         30.2790    -2.4130    54.5750 ca         1 ONN      -0.121300
     13 C21         30.0330    -3.4890    53.6760 ca         1 ONN       0.015700
     14 C22         31.0180    -3.8240    52.7230 ca         1 ONN      -0.118000
     15 C23         32.2260    -3.1130    52.6500 ca         1 ONN      -0.108000
     16 C24         32.4640    -2.0520    53.5330 ca         1 ONN      -0.146000
     17 C25         31.4970    -1.7050    54.4870 ca         1 ONN      -0.109000
     18 C26         28.7340    -4.3030    53.6780 c3         1 ONN      -0.201100
     19 C27         27.7790    -3.7330    52.6230 c          1 ONN       0.730000
     20 C3          26.1500    -5.5030    59.4910 ca         1 ONN      -0.065000
     21 C31         30.5500    -2.2880    59.9970 c          1 ONN       0.564100
     22 C32         32.0480    -2.2200    59.4970 c3         1 ONN       0.100500
     23 C35         32.7030    -0.8200    59.6880 c3         1 ONN      -0.045400
     24 C36         32.1840     0.3280    58.7860 c3         1 ONN       0.053600
     25 C7          25.6410    -4.2450    61.5100 ca         1 ONN      -0.065000
     26 C9          28.1840    -2.9980    59.3260 c3         1 ONN       0.130700
     27 N13         28.1320    -0.1070    57.8020 ns         1 ONN      -0.512900
     28 N18         28.1320    -1.2890    55.0780 ns         1 ONN      -0.509900
     29 N30         29.6190    -2.7530    59.0760 ns         1 ONN      -0.513900
     30 N34         32.3590    -2.7550    58.1190 n8         1 ONN      -1.039200
     31 O12         26.1590    -1.2050    57.4890 o          1 ONN      -0.576100
     32 O17         27.1470     0.5910    54.3910 o          1 ONN      -0.603100
     33 O28         27.8720    -4.1470    51.4770 o          1 ONN      -0.703000
     34 O29         27.0700    -2.7950    52.9520 o          1 ONN      -0.703000
     35 O33         30.2350    -1.9690    61.1350 o          1 ONN      -0.598100
     36 O8          22.6920    -6.2090    60.5160 oh         1 ONN      -0.533100
     37 S37         30.5480     0.9620    59.3610 ss         1 ONN      -0.246000
     38 S38         30.0300     2.4400    57.9640 ss         1 ONN      -0.245000
     39 H1          27.3430     1.5130    56.7450 h1         1 ONN       0.093700
     40 H2          24.5460    -6.7370    58.7250 ha         1 ONN       0.120500
     41 H3          23.6510    -4.5010    62.3080 ha         1 ONN       0.120500
     42 H4          28.6830    -4.8310    60.3730 hc         1 ONN       0.058200
     43 H5          28.1840    -3.5360    61.4410 hc         1 ONN       0.058200
     44 H6          27.9650    -1.0240    60.1700 hc         1 ONN       0.082700
     45 H7          26.4140    -1.9020    59.9530 hc         1 ONN       0.082700
     46 H8          29.3790     2.2480    55.6270 h1         1 ONN       0.086700
     47 H9          30.2740     0.8210    56.1600 h1         1 ONN       0.086700
     48 H10         28.9210    -2.8580    56.2020 h1         1 ONN       0.009700
     49 H11         29.7950    -1.3390    56.3650 h1         1 ONN       0.009700
     50 H12         30.8420    -4.6410    52.0270 ha         1 ONN       0.117000
     51 H13         32.9730    -3.3840    51.9080 ha         1 ONN       0.096000
     52 H14         33.3980    -1.4980    53.4780 ha         1 ONN       0.095000
     53 H15         31.7000    -0.8790    55.1640 ha         1 ONN       0.086000
     54 H16         28.2750    -4.2380    54.6690 hc         1 ONN       0.040700
     55 H17         29.0000    -5.3350    53.4170 hc         1 ONN       0.040700
     56 H18         26.8430    -5.7900    58.7020 ha         1 ONN       0.112500
     57 H19         32.5750    -2.8890    60.1930 h1         1 ONN       0.072700
     58 H20         33.7780    -0.9290    59.4990 hc         1 ONN       0.065200
     59 H21         32.6170    -0.5170    60.7390 hc         1 ONN       0.065200
     60 H22         32.1070    -0.0070    57.7450 h1         1 ONN       0.068700
     61 H23         32.8970     1.1620    58.8200 h1         1 ONN       0.068700
     62 H24         25.9370    -3.5490    62.2930 ha         1 ONN       0.112500
     63 H25         27.7970    -3.4830    58.4190 h1         1 ONN       0.066700
     64 H26         28.8920     0.0060    58.4630 hn         1 ONN       0.320500
     65 H27         27.7150    -1.7100    54.2480 hn         1 ONN       0.408500
     66 H28         29.9890    -3.0270    58.1760 hn         1 ONN       0.309500
     67 H29         32.0700    -3.7380    58.0370 hn         1 ONN       0.418500
     68 H30         31.8300    -2.2550    57.3960 hn         1 ONN       0.418500
     69 H33         22.2070    -5.8500    61.2890 ho         1 ONN       0.460000
@<TRIPOS>BOND
     1     1     9 1   
     2     1    10 1   
     3     1    27 1   
     4     1    39 1   
     5     2     8 1   
     6     2    27 1   
     7     2    31 2   
     8     3     7 1   
     9     3    20 ar  
    10     3    25 ar  
    11     4     5 ar  
    12     4    20 ar  
    13     4    40 1   
    14     5     6 ar  
    15     5    36 1   
    16     6    25 ar  
    17     6    41 1   
    18     7    26 1   
    19     7    42 1   
    20     7    43 1   
    21     8    26 1   
    22     8    44 1   
    23     8    45 1   
    24     9    38 1   
    25     9    46 1   
    26     9    47 1   
    27    10    28 1   
    28    10    32 2   
    29    11    12 1   
    30    11    28 1   
    31    11    48 1   
    32    11    49 1   
    33    12    13 ar  
    34    12    17 ar  
    35    13    14 ar  
    36    13    18 1   
    37    14    15 ar  
    38    14    50 1   
    39    15    16 ar  
    40    15    51 1   
    41    16    17 ar  
    42    16    52 1   
    43    17    53 1   
    44    18    19 1   
    45    18    54 1   
    46    18    55 1   
    47    19    33 1   
    48    19    34 1   
    49    20    56 1   
    50    21    22 1   
    51    21    29 1   
    52    21    35 2   
    53    22    23 1   
    54    22    30 1   
    55    22    57 1   
    56    23    24 1   
    57    23    58 1   
    58    23    59 1   
    59    24    37 1   
    60    24    60 1   
    61    24    61 1   
    62    25    62 1   
    63    26    29 1   
    64    26    63 1   
    65    27    64 1   
    66    28    65 1   
    67    29    66 1   
    68    30    67 1   
    69    30    68 1   
    70    36    69 1   
    71    37    38 1   
@<TRIPOS>SUBSTRUCTURE
     1 ONN         1 TEMP              0 ****  ****    0 ROOT
