@<TRIPOS>MOLECULE
ONO
   69    71     1     0     0
SMALL
abcg2


@<TRIPOS>ATOM
      1 O32         -4.6710    -0.3170    -2.2510 o          1 ONO      -0.608100
      2 C30         -4.3640    -0.5790    -1.0970 c          1 ONO       0.621700
      3 N31         -5.2490    -0.5000    -0.0810 ns         1 ONO      -0.497900
      4 C34         -6.5920    -0.0340    -0.2890 c3         1 ONO      -0.001300
      5 C66         -6.6270     1.4700    -0.4630 c          1 ONO       0.554900
      6 O67         -5.6870     2.1930    -0.2610 o          1 ONO      -0.493100
      7 C35         -7.5570    -0.5240     0.8240 c3         1 ONO      -0.045000
      8 C62         -7.1580     0.0240     2.1960 c3         1 ONO      -0.085767
      9 C37         -8.9840    -0.0700     0.4980 c3         1 ONO      -0.085767
     10 C36         -7.5290    -2.0540     0.8500 c3         1 ONO      -0.085767
     11 C24         -2.9870    -1.0240    -0.7380 ca         1 ONO      -0.171600
     12 C23         -2.7110    -1.8070     0.3770 ca         1 ONO      -0.115000
     13 C22         -1.4090    -2.2090     0.6250 ca         1 ONO      -0.138000
     14 C25         -1.9390    -0.6700    -1.5810 ca         1 ONO      -0.028000
     15 C26         -0.6260    -1.0540    -1.3430 ca         1 ONO      -0.105600
     16 C27          0.4400    -0.6050    -2.3450 c          1 ONO       0.715600
     17 O29          0.0840     0.2610    -3.1670 o          1 ONO      -0.710500
     18 O28          1.5590    -1.1410    -2.2690 o          1 ONO      -0.710500
     19 C21         -0.3570    -1.8440    -0.2140 cp         1 ONO       0.007000
     20 C20          0.9750    -2.3980     0.1250 cp         1 ONO       0.003000
     21 C19          1.1230    -3.7890     0.1490 ca         1 ONO      -0.055000
     22 C18          2.3360    -4.3760     0.4340 ca         1 ONO      -0.180000
     23 C17          3.4150    -3.5280     0.6920 ca         1 ONO       0.572300
     24 O44          4.6000    -4.0840     0.9430 os         1 ONO      -0.472300
     25 C58          5.7010    -3.2270     1.2080 c3         1 ONO       0.163900
     26 N16          3.2900    -2.2210     0.6950 nb         1 ONO      -0.781000
     27 C15          2.1100    -1.6630     0.4330 ca         1 ONO       0.387500
     28 C13          2.0840    -0.1630     0.5010 c          1 ONO       0.540600
     29 O14          1.0500     0.4580     0.6620 o          1 ONO      -0.563100
     30 N7           3.3150     0.3870     0.3920 ns         1 ONO      -0.125000
     31 C1           3.6930     1.7280     0.4160 ca         1 ONO       0.022000
     32 C6           2.8030     2.8010     0.4970 ca         1 ONO      -0.162500
     33 C5           3.2900     4.1010     0.5150 ca         1 ONO      -0.063500
     34 C4           4.6500     4.3790     0.4480 ca         1 ONO      -0.139300
     35 C8           5.1730     5.7980     0.4150 c3         1 ONO       0.438000
     36 N10          5.1870     6.2670    -0.9560 n8         1 ONO      -1.011200
     37 N9           4.3630     6.6460     1.2810 n8         1 ONO      -1.011200
     38 C3           5.5270     3.3020     0.3630 ca         1 ONO      -0.063500
     39 C2           5.0620     2.0000     0.3500 ca         1 ONO      -0.162500
     40 H31         -4.8940    -0.5030     0.8620 hn         1 ONO       0.318500
     41 H34         -6.9640    -0.4540    -1.2310 h1         1 ONO       0.088700
     42 H66         -7.5910     1.8760    -0.8110 h4         1 ONO      -0.024800
     43 H621        -7.1820     1.1140     2.2310 hc         1 ONO       0.035811
     44 H622        -7.8560    -0.3400     2.9530 hc         1 ONO       0.035811
     45 H623        -6.1630    -0.2980     2.5110 hc         1 ONO       0.035811
     46 H371        -9.2800    -0.3690    -0.5100 hc         1 ONO       0.035811
     47 H372        -9.6830    -0.5300     1.1970 hc         1 ONO       0.035811
     48 H373        -9.1130     1.0090     0.5820 hc         1 ONO       0.035811
     49 H361        -6.5450    -2.4470     1.1090 hc         1 ONO       0.035811
     50 H362        -8.2380    -2.4260     1.5910 hc         1 ONO       0.035811
     51 H363        -7.8090    -2.4700    -0.1200 hc         1 ONO       0.035811
     52 H23         -3.4940    -2.1390     1.0480 ha         1 ONO       0.085000
     53 H22         -1.2060    -2.8230     1.4930 ha         1 ONO       0.090000
     54 H25         -2.1450    -0.0670    -2.4540 ha         1 ONO       0.159000
     55 H19          0.2730    -4.4180    -0.0810 ha         1 ONO       0.120000
     56 H18          2.4550    -5.4500     0.4450 ha         1 ONO       0.122000
     57 H581         6.5560    -3.8790     1.3680 h1         1 ONO       0.038367
     58 H582         5.9090    -2.5620     0.3670 h1         1 ONO       0.038367
     59 H583         5.5370    -2.6210     2.1000 h1         1 ONO       0.038367
     60 HN7          4.0660    -0.2880     0.3340 hn         1 ONO       0.174000
     61 H6           1.7400     2.6360     0.5490 ha         1 ONO       0.130500
     62 H5           2.5820     4.9170     0.5890 ha         1 ONO       0.109000
     63 H8           6.2250     5.7670     0.7320 h2         1 ONO       0.021700
     64 H101         4.2330     6.3800    -1.2800 hn         1 ONO       0.393750
     65 H102         5.6110     7.1870    -0.9970 hn         1 ONO       0.393750
     66 HN91         4.4070     6.3050     2.2350 hn         1 ONO       0.393750
     67 HN92         4.7640     7.5760     1.3010 hn         1 ONO       0.393750
     68 H3           6.5950     3.4780     0.3130 ha         1 ONO       0.109000
     69 H2           5.7720     1.1830     0.2910 ha         1 ONO       0.130500
@<TRIPOS>BOND
     1     1     2 2   
     2     2     3 1   
     3     2    11 1   
     4     3     4 1   
     5     3    40 1   
     6     4     5 1   
     7     4     7 1   
     8     4    41 1   
     9     5     6 2   
    10     5    42 1   
    11     7     8 1   
    12     7     9 1   
    13     7    10 1   
    14     8    43 1   
    15     8    44 1   
    16     8    45 1   
    17     9    46 1   
    18     9    47 1   
    19     9    48 1   
    20    10    49 1   
    21    10    50 1   
    22    10    51 1   
    23    11    12 ar  
    24    11    14 ar  
    25    12    13 ar  
    26    12    52 1   
    27    13    19 ar  
    28    13    53 1   
    29    14    15 ar  
    30    14    54 1   
    31    15    16 1   
    32    15    19 ar  
    33    16    17 1   
    34    16    18 1   
    35    19    20 1   
    36    20    21 ar  
    37    20    27 ar  
    38    21    22 ar  
    39    21    55 1   
    40    22    23 ar  
    41    22    56 1   
    42    23    24 1   
    43    23    26 ar  
    44    24    25 1   
    45    25    57 1   
    46    25    58 1   
    47    25    59 1   
    48    26    27 ar  
    49    27    28 1   
    50    28    29 2   
    51    28    30 1   
    52    30    31 1   
    53    30    60 1   
    54    31    32 ar  
    55    31    39 ar  
    56    32    33 ar  
    57    32    61 1   
    58    33    34 ar  
    59    33    62 1   
    60    34    35 1   
    61    34    38 ar  
    62    35    36 1   
    63    35    37 1   
    64    35    63 1   
    65    36    64 1   
    66    36    65 1   
    67    37    66 1   
    68    37    67 1   
    69    38    39 ar  
    70    38    68 1   
    71    39    69 1   
@<TRIPOS>SUBSTRUCTURE
     1 ONO         1 TEMP              0 ****  ****    0 ROOT
