@<TRIPOS>MOLECULE
ONO
   69    71     1     0     0
SMALL
No Charge or Current Charge


@<TRIPOS>ATOM
      1 O32         -4.6110     0.5700    -1.4660 o          1 ONO      -0.608100
      2 C30         -4.3400     0.0330    -0.4000 c          1 ONO       0.621700
      3 N31         -5.2630    -0.0530     0.6200 ns         1 ONO      -0.497900
      4 C34         -6.6690     0.4250     0.5600 c3         1 ONO      -0.001300
      5 C66         -7.0120     1.2200     1.8510 c          1 ONO       0.554900
      6 O67         -6.3780     1.1400     2.8990 o          1 ONO      -0.493100
      7 C35         -7.6960    -0.7220     0.2440 c3         1 ONO      -0.045000
      8 C62         -7.6730    -1.8080     1.3560 c3         1 ONO      -0.085767
      9 C37         -9.1340    -0.1400     0.1400 c3         1 ONO      -0.085767
     10 C36         -7.3520    -1.3930    -1.1150 c3         1 ONO      -0.085767
     11 C24         -2.9770    -0.5690    -0.1240 ca         1 ONO      -0.171600
     12 C23         -2.6680    -1.2090     1.0980 ca         1 ONO      -0.115000
     13 C22         -1.3930    -1.7540     1.3150 ca         1 ONO      -0.138000
     14 C25         -1.9780    -0.5020    -1.1180 ca         1 ONO      -0.028000
     15 C26         -0.6960    -1.0540    -0.9070 ca         1 ONO      -0.105600
     16 C27          0.3530    -0.9920    -2.0080 c          1 ONO       0.715600
     17 O29          0.2600    -0.0920    -2.8290 o          1 ONO      -0.710500
     18 O28          1.2060    -1.8630    -2.0850 o          1 ONO      -0.710500
     19 C21         -0.3730    -1.6860     0.3370 cp         1 ONO       0.007000
     20 C20          0.9550    -2.2930     0.6770 cp         1 ONO       0.003000
     21 C19          1.0100    -3.6920     0.8770 ca         1 ONO      -0.055000
     22 C18          2.2380    -4.3070     1.1600 ca         1 ONO      -0.180000
     23 C17          3.4000    -3.5310     1.2440 ca         1 ONO       0.572300
     24 O44          4.5830    -4.1740     1.5190 os         1 ONO      -0.472300
     25 C58          5.8220    -3.4460     1.6210 c3         1 ONO       0.163900
     26 N16          3.3880    -2.1940     1.0770 nb         1 ONO      -0.781000
     27 C15          2.1930    -1.5770     0.8050 ca         1 ONO       0.387500
     28 C13          2.1660    -0.0450     0.6580 c          1 ONO       0.540600
     29 O14          1.1640     0.6520     0.8110 o          1 ONO      -0.563100
     30 N7           3.4180     0.4950     0.3830 ns         1 ONO      -0.125000
     31 C1           3.8590     1.8250     0.1440 ca         1 ONO       0.022000
     32 C6           2.9840     2.9050    -0.0990 ca         1 ONO      -0.162500
     33 C5           3.4910     4.1960    -0.3350 ca         1 ONO      -0.063500
     34 C4           4.8840     4.4310    -0.3380 ca         1 ONO      -0.139300
     35 C8           5.4670     5.8180    -0.5830 c3         1 ONO       0.438000
     36 N10          4.9650     6.4610    -1.7190 n8         1 ONO      -1.011200
     37 N9           4.9610     6.7890     0.3010 n8         1 ONO      -1.011200
     38 C3           5.7550     3.3500    -0.1040 ca         1 ONO      -0.063500
     39 C2           5.2460     2.0610     0.1310 ca         1 ONO      -0.162500
     40 H31         -4.9420    -0.4850     1.4780 hn         1 ONO       0.318500
     41 H34         -6.7420     1.1650    -0.2480 h1         1 ONO       0.088700
     42 H66         -7.8840     1.9070     1.7690 h4         1 ONO      -0.024800
     43 H621        -7.9370    -1.3860     2.3330 hc         1 ONO       0.035811
     44 H622        -8.3910    -2.6070     1.1340 hc         1 ONO       0.035811
     45 H623        -6.6810    -2.2690     1.4420 hc         1 ONO       0.035811
     46 H371        -9.1790     0.6640    -0.6050 hc         1 ONO       0.035811
     47 H372        -9.8490    -0.9160    -0.1620 hc         1 ONO       0.035811
     48 H373        -9.4780     0.2630     1.0990 hc         1 ONO       0.035811
     49 H361        -6.3780    -1.8960    -1.0790 hc         1 ONO       0.035811
     50 H362        -8.1010    -2.1500    -1.3800 hc         1 ONO       0.035811
     51 H363        -7.3230    -0.6520    -1.9220 hc         1 ONO       0.035811
     52 H23         -3.4030    -1.2940     1.8940 ha         1 ONO       0.085000
     53 H22         -1.1840    -2.2340     2.2680 ha         1 ONO       0.090000
     54 H25         -2.1990    -0.0250    -2.0710 ha         1 ONO       0.159000
     55 H19          0.1060    -4.2920     0.7960 ha         1 ONO       0.120000
     56 H18          2.2960    -5.3810     1.3080 ha         1 ONO       0.122000
     57 H581         6.6490    -4.1310     1.8430 h1         1 ONO       0.038367
     58 H582         6.0510    -2.9300     0.6790 h1         1 ONO       0.038367
     59 H583         5.7730    -2.7000     2.4250 h1         1 ONO       0.038367
     60 HN7          4.1560    -0.1980     0.3460 hn         1 ONO       0.174000
     61 H6           1.9080     2.7650    -0.1210 ha         1 ONO       0.130500
     62 H5           2.7950     5.0110    -0.5200 ha         1 ONO       0.109000
     63 H8           6.5660     5.8290    -0.5950 h2         1 ONO       0.021700
     64 H101         3.9550     6.4740    -1.5950 hn         1 ONO       0.393750
     65 H102         5.2400     7.4340    -1.5870 hn         1 ONO       0.393750
     66 HN91         4.1490     6.3780     0.7660 hn         1 ONO       0.393750
     67 HN92         5.6460     6.9100     1.0530 hn         1 ONO       0.393750
     68 H3           6.8310     3.5090    -0.1040 ha         1 ONO       0.109000
     69 H2           5.9380     1.2410     0.3090 ha         1 ONO       0.130500
@<TRIPOS>BOND
     1     1     2 2   
     2     2     3 1   
     3     2    11 1   
     4     3     4 1   
     5     3    40 1   
     6     4     5 1   
     7     4     7 1   
     8     4    41 1   
     9     5     6 2   
    10     5    42 1   
    11     7     8 1   
    12     7     9 1   
    13     7    10 1   
    14     8    43 1   
    15     8    44 1   
    16     8    45 1   
    17     9    46 1   
    18     9    47 1   
    19     9    48 1   
    20    10    49 1   
    21    10    50 1   
    22    10    51 1   
    23    11    12 ar  
    24    11    14 ar  
    25    12    13 ar  
    26    12    52 1   
    27    13    19 ar  
    28    13    53 1   
    29    14    15 ar  
    30    14    54 1   
    31    15    16 1   
    32    15    19 ar  
    33    16    17 1   
    34    16    18 1   
    35    19    20 1   
    36    20    21 ar  
    37    20    27 ar  
    38    21    22 ar  
    39    21    55 1   
    40    22    23 ar  
    41    22    56 1   
    42    23    24 1   
    43    23    26 ar  
    44    24    25 1   
    45    25    57 1   
    46    25    58 1   
    47    25    59 1   
    48    26    27 ar  
    49    27    28 1   
    50    28    29 2   
    51    28    30 1   
    52    30    31 1   
    53    30    60 1   
    54    31    32 ar  
    55    31    39 ar  
    56    32    33 ar  
    57    32    61 1   
    58    33    34 ar  
    59    33    62 1   
    60    34    35 1   
    61    34    38 ar  
    62    35    36 1   
    63    35    37 1   
    64    35    63 1   
    65    36    64 1   
    66    36    65 1   
    67    37    66 1   
    68    37    67 1   
    69    38    39 ar  
    70    38    68 1   
    71    39    69 1   
@<TRIPOS>SUBSTRUCTURE
     1 ONO         1 TEMP              0 ****  ****    0 ROOT
