@<TRIPOS>MOLECULE
ONQ
   27    27     1     0     0
SMALL
No Charge or Current Charge


@<TRIPOS>ATOM
      1 N1          -2.7180    94.1880   129.4520 nt         1 ONQ      -0.603000
      2 C4          -2.3050    97.3210   124.1190 ca         1 ONQ      -0.190600
      3 C5          -1.8600    98.4440   123.3850 ca         1 ONQ      -0.030500
      4 C6          -2.1400    98.5620   122.0140 ca         1 ONQ      -0.187000
      5 C7          -1.9850    97.2280   125.5960 c          1 ONQ       0.622700
      6 C8          -2.2260    95.8500   127.7040 c3         1 ONQ       0.018000
      7 O2          -1.3500    98.0950   126.1820 o          1 ONQ      -0.616100
      8 N           -2.4410    96.1150   126.2640 ns         1 ONQ      -0.497900
      9 C9          -2.8640    94.5130   128.1490 c          1 ONQ       0.594100
     10 O1          -3.4730    93.7670   127.3960 o          1 ONQ      -0.613100
     11 C3          -3.0390    96.3180   123.4390 ca         1 ONQ      -0.030500
     12 C2          -3.3170    96.4410   122.0650 ca         1 ONQ      -0.187000
     13 C1          -2.8670    97.5670   121.3460 ca         1 ONQ       0.165100
     14 O           -3.1100    97.7390   119.9990 os         1 ONQ      -0.338100
     15 C           -3.8460    96.7760   119.2230 c3         1 ONQ       0.147900
     16 H11         -3.1170    93.3250   129.7920 hn         1 ONQ       0.319500
     17 H10         -2.2160    94.8020   130.0770 hn         1 ONQ       0.319500
     18 H5          -1.2940    99.2330   123.8770 ha         1 ONQ       0.126000
     19 H6          -1.7910    99.4320   121.4640 ha         1 ONQ       0.126000
     20 H8          -1.1500    95.8070   127.9150 h1         1 ONQ       0.066200
     21 H9          -2.6690    96.6600   128.2980 h1         1 ONQ       0.066200
     22 H7          -2.9600    95.4310   125.7260 hn         1 ONQ       0.343500
     23 H4          -3.4040    95.4340   123.9560 ha         1 ONQ       0.126000
     24 H3          -3.8820    95.6520   121.5780 ha         1 ONQ       0.126000
     25 H1          -3.9230    97.1070   118.1810 h1         1 ONQ       0.043367
     26 H2          -3.3430    95.8000   119.2330 h1         1 ONQ       0.043367
     27 H           -4.8630    96.6530   119.6170 h1         1 ONQ       0.043367
@<TRIPOS>BOND
     1     1     9 1   
     2     1    16 1   
     3     1    17 1   
     4     2     3 ar  
     5     2     5 1   
     6     2    11 ar  
     7     3     4 ar  
     8     3    18 1   
     9     4    13 ar  
    10     4    19 1   
    11     5     7 2   
    12     5     8 1   
    13     6     8 1   
    14     6     9 1   
    15     6    20 1   
    16     6    21 1   
    17     8    22 1   
    18     9    10 2   
    19    11    12 ar  
    20    11    23 1   
    21    12    13 ar  
    22    12    24 1   
    23    13    14 1   
    24    14    15 1   
    25    15    25 1   
    26    15    26 1   
    27    15    27 1   
@<TRIPOS>SUBSTRUCTURE
     1 ONQ         1 TEMP              0 ****  ****    0 ROOT
