@<TRIPOS>MOLECULE
ONQ
   27    27     1     0     0
SMALL
abcg2


@<TRIPOS>ATOM
      1 N1          -2.6490    94.2500   129.3390 nt         1 ONQ      -0.603000
      2 C4          -2.4190    97.2890   124.1410 ca         1 ONQ      -0.190600
      3 C5          -1.8030    98.3000   123.4000 ca         1 ONQ      -0.030500
      4 C6          -1.9960    98.4060   122.0390 ca         1 ONQ      -0.187000
      5 C7          -2.1740    97.2390   125.6090 c          1 ONQ       0.622700
      6 C8          -2.2550    95.8950   127.6350 c3         1 ONQ       0.018000
      7 O2          -1.7580    98.2160   126.2220 o          1 ONQ      -0.616100
      8 N           -2.4290    96.0720   126.2210 ns         1 ONQ      -0.497900
      9 C9          -2.6870    94.4920   128.0260 c          1 ONQ       0.594100
     10 O1          -3.0290    93.6680   127.1910 o          1 ONQ      -0.613100
     11 C3          -3.2560    96.4030   123.4710 ca         1 ONQ      -0.030500
     12 C2          -3.4700    96.5010   122.1040 ca         1 ONQ      -0.187000
     13 C1          -2.8340    97.5050   121.3750 ca         1 ONQ       0.165100
     14 O           -2.9700    97.6830   120.0540 os         1 ONQ      -0.338100
     15 C           -3.8030    96.7970   119.3290 c3         1 ONQ       0.147900
     16 H11         -2.9000    93.3440   129.6990 hn         1 ONQ       0.319500
     17 H10         -2.3680    94.9510   130.0030 hn         1 ONQ       0.319500
     18 H5          -1.1570    99.0120   123.8970 ha         1 ONQ       0.126000
     19 H6          -1.5060    99.1900   121.4760 ha         1 ONQ       0.126000
     20 H8          -1.2110    96.0370   127.9350 h1         1 ONQ       0.066200
     21 H9          -2.8430    96.6260   128.1970 h1         1 ONQ       0.066200
     22 H7          -2.6530    95.2420   125.6950 hn         1 ONQ       0.343500
     23 H4          -3.7870    95.6240   124.0030 ha         1 ONQ       0.126000
     24 H3          -4.1390    95.7950   121.6300 ha         1 ONQ       0.126000
     25 H1          -3.7700    97.1220   118.2920 h1         1 ONQ       0.043367
     26 H2          -3.4470    95.7660   119.3870 h1         1 ONQ       0.043367
     27 H           -4.8380    96.8350   119.6780 h1         1 ONQ       0.043367
@<TRIPOS>BOND
     1     1     9 1   
     2     1    16 1   
     3     1    17 1   
     4     2     3 ar  
     5     2     5 1   
     6     2    11 ar  
     7     3     4 ar  
     8     3    18 1   
     9     4    13 ar  
    10     4    19 1   
    11     5     7 2   
    12     5     8 1   
    13     6     8 1   
    14     6     9 1   
    15     6    20 1   
    16     6    21 1   
    17     8    22 1   
    18     9    10 2   
    19    11    12 ar  
    20    11    23 1   
    21    12    13 ar  
    22    12    24 1   
    23    13    14 1   
    24    14    15 1   
    25    15    25 1   
    26    15    26 1   
    27    15    27 1   
@<TRIPOS>SUBSTRUCTURE
     1 ONQ         1 TEMP              0 ****  ****    0 ROOT
