@<TRIPOS>MOLECULE
ONR
   19    20     1     0     0
SMALL
No Charge or Current Charge


@<TRIPOS>ATOM
      1 C1           2.3600    -1.1630     0.1560 ca         1 ONR      -0.040000
      2 C2           1.2830    -2.0620     0.2320 ca         1 ONR      -0.210000
      3 C3          -0.0400    -1.5870     0.2290 ca         1 ONR       0.182100
      4 C4          -0.3000    -0.1990     0.1480 ca         1 ONR      -0.177500
      5 C5           0.7920     0.6950     0.0730 ca         1 ONR      -0.039000
      6 C6           2.1120     0.2150     0.0770 ca         1 ONR       0.071000
      7 Cl7          3.4570     1.3440    -0.0220 cl         1 ONR      -0.192000
      8 C8          -1.6690     0.3320     0.1370 cc         1 ONR       0.247500
      9 C9          -2.0540     1.5350     0.6340 cd         1 ONR      -0.247000
     10 C10         -3.4320     1.6190     0.3620 cd         1 ONR       0.258900
     11 N11         -3.8980     0.5530    -0.2720 nc         1 ONR      -0.360300
     12 O12         -2.7420    -0.3060    -0.4320 os         1 ONR      -0.051700
     13 O13         -1.0590    -2.4870     0.3280 oh         1 ONR      -0.506100
     14 H1           3.3830    -1.5320     0.1580 ha         1 ONR       0.133000
     15 H2           1.4850    -3.1290     0.2980 ha         1 ONR       0.123000
     16 H5           0.6250     1.7670     0.0010 ha         1 ONR       0.138000
     17 H9          -1.4410     2.2720     1.1370 ha         1 ONR       0.153000
     18 H10         -4.1090     2.4280     0.6050 h4         1 ONR       0.044100
     19 HO13        -0.6730    -3.3860     0.3790 ho         1 ONR       0.472000
@<TRIPOS>BOND
     1     1     2 ar  
     2     1     6 ar  
     3     1    14 1   
     4     2     3 ar  
     5     2    15 1   
     6     3     4 ar  
     7     3    13 1   
     8     4     5 ar  
     9     4     8 1   
    10     5     6 ar  
    11     5    16 1   
    12     6     7 1   
    13     8     9 2   
    14     8    12 1   
    15     9    10 1   
    16     9    17 1   
    17    10    11 2   
    18    10    18 1   
    19    11    12 1   
    20    13    19 1   
@<TRIPOS>SUBSTRUCTURE
     1 ONR         1 TEMP              0 ****  ****    0 ROOT
