@<TRIPOS>MOLECULE
ONR
   19    20     1     0     0
SMALL
bcc


@<TRIPOS>ATOM
      1 C1           2.3480    -1.1720     0.1450 ca         1 ONR      -0.058000
      2 C2           1.2750    -2.0410     0.2270 ca         1 ONR      -0.228000
      3 C3          -0.0350    -1.5670     0.2270 ca         1 ONR       0.182100
      4 C4          -0.2660    -0.1860     0.1390 ca         1 ONR      -0.177500
      5 C5           0.8220     0.6830     0.0570 ca         1 ONR      -0.057000
      6 C6           2.1130     0.1920     0.0620 ca         1 ONR      -0.020600
      7 CL7          3.4480     1.2900    -0.0500 cl         1 ONR      -0.100400
      8 C8          -1.6040     0.3940     0.1660 cc         1 ONR       0.357200
      9 C9          -2.0650     1.5670     0.6770 cd         1 ONR      -0.395600
     10 C10         -3.4380     1.5470     0.3510 cd         1 ONR       0.324200
     11 N11         -3.7640     0.4650    -0.2920 nc         1 ONR      -0.360300
     12 O12         -2.6180    -0.2590    -0.4120 os         1 ONR      -0.096100
     13 O13         -1.0880    -2.3870     0.3290 oh         1 ONR      -0.467100
     14 H1           3.3570    -1.5600     0.1450 ha         1 ONR       0.151000
     15 H2           1.4600    -3.1070     0.2980 ha         1 ONR       0.141000
     16 H5           0.6480     1.7470    -0.0270 ha         1 ONR       0.156000
     17 H9          -1.5210     2.3210     1.2180 ha         1 ONR       0.171000
     18 H10         -4.1930     2.2850     0.5740 h4         1 ONR       0.044100
     19 HO13        -0.7970    -3.3040     0.3930 ho         1 ONR       0.433000
@<TRIPOS>BOND
     1     1     2 ar  
     2     1     6 ar  
     3     1    14 1   
     4     2     3 ar  
     5     2    15 1   
     6     3     4 ar  
     7     3    13 1   
     8     4     5 ar  
     9     4     8 1   
    10     5     6 ar  
    11     5    16 1   
    12     6     7 1   
    13     8     9 2   
    14     8    12 1   
    15     9    10 1   
    16     9    17 1   
    17    10    11 2   
    18    10    18 1   
    19    11    12 1   
    20    13    19 1   
@<TRIPOS>SUBSTRUCTURE
     1 ONR         1 TEMP              0 ****  ****    0 ROOT
