@<TRIPOS>MOLECULE
ONS
   55    59     1     0     0
SMALL
No Charge or Current Charge


@<TRIPOS>ATOM
      1 O2          -3.9610     3.9950    -0.4340 o          1 ONS      -0.708500
      2 C19         -4.2960     3.0900     0.3180 c          1 ONS       0.728000
      3 O3          -4.4740     3.2510     1.5160 o          1 ONS      -0.708500
      4 C18         -4.5770     1.7010    -0.3060 c3         1 ONS      -0.145100
      5 C20         -6.0150     1.2480    -0.0320 ca         1 ONS      -0.045300
      6 C21         -7.0520     1.6070    -0.9210 ca         1 ONS       0.313900
      7 N2          -8.3480     1.2500    -0.7470 nb         1 ONS      -0.688000
      8 C22         -8.6540     0.5110     0.3430 ca         1 ONS       0.302900
      9 C23         -7.6940     0.1110     1.2860 ca         1 ONS      -0.175000
     10 C24         -6.3520     0.4830     1.1020 ca         1 ONS      -0.045000
     11 C15         -3.5340     0.6240     0.0340 ca         1 ONS       0.023700
     12 C16         -3.2020    -0.3290    -0.9500 ca         1 ONS      -0.104500
     13 C17         -2.2630    -1.3410    -0.6880 ca         1 ONS      -0.101500
     14 C14         -2.9020     0.5360     1.2940 ca         1 ONS      -0.104500
     15 C13         -1.9630    -0.4760     1.5580 ca         1 ONS      -0.101500
     16 C12         -1.6420    -1.4300     0.5730 ca         1 ONS      -0.143300
     17 C9          -0.6060    -2.5200     0.8570 cy         1 ONS       0.125700
     18 C10         -1.0160    -3.9460     0.3290 cy         1 ONS       0.138600
     19 O1          -0.5940    -4.5290     1.6110 oq         1 ONS      -0.445000
     20 C11         -0.7940    -3.2210     2.2560 cy         1 ONS       0.138600
     21 N1           0.6860    -1.9920     0.4590 ns         1 ONS      -0.476900
     22 C8           1.9420    -2.4650     0.7920 c          1 ONS       0.624300
     23 O            2.1250    -3.4390     1.5060 o          1 ONS      -0.604100
     24 C6           3.0570    -1.6720     0.1950 cc         1 ONS      -0.128300
     25 C7           2.9270    -0.5630    -0.6470 cd         1 ONS      -0.187200
     26 N            4.4590    -1.8380     0.3140 na         1 ONS      -0.047700
     27 C25          5.1820    -2.8490     1.1080 c3         1 ONS       0.067900
     28 C5           5.1360    -0.8820    -0.4420 ca         1 ONS      -0.037200
     29 C            6.5150    -0.6920    -0.6350 ca         1 ONS      -0.117000
     30 C1           6.9300     0.3730    -1.4660 ca         1 ONS      -0.082000
     31 C4           4.2210    -0.0670    -1.0470 ca         1 ONS      -0.101800
     32 C3           4.5940     1.0000    -1.8790 ca         1 ONS       0.177000
     33 Cl           3.3670     2.0190    -2.6340 cl         1 ONS      -0.162000
     34 C2           5.9770     1.2180    -2.0850 ca         1 ONS       0.084000
     35 Cl1          6.5440     2.5340    -3.1150 cl         1 ONS      -0.190000
     36 H2          -4.4800     1.8560    -1.3880 hc         1 ONS       0.050700
     37 H3          -6.8390     2.2030    -1.8080 h4         1 ONS       0.004100
     38 H4          -9.7010     0.2350     0.4630 h4         1 ONS      -0.004900
     39 H5          -7.9910    -0.4800     2.1480 ha         1 ONS       0.104000
     40 H6          -5.5990     0.1870     1.8280 ha         1 ONS       0.125000
     41 H7          -3.6750    -0.2870    -1.9280 ha         1 ONS       0.121000
     42 H8          -2.0200    -2.0540    -1.4730 ha         1 ONS       0.099000
     43 H9          -3.1340     1.2420     2.0850 ha         1 ONS       0.121000
     44 H10         -1.4840    -0.5120     2.5340 ha         1 ONS       0.099000
     45 H11         -2.0930    -4.0810     0.1670 h1         1 ONS       0.057200
     46 H12         -0.4330    -4.3240    -0.5170 h1         1 ONS       0.057200
     47 H13         -0.0320    -2.9980     3.0110 h1         1 ONS       0.057200
     48 H14         -1.8040    -3.1370     2.6750 h1         1 ONS       0.057200
     49 H15          0.6870    -1.1710    -0.1270 hn         1 ONS       0.339500
     50 H16          1.9900    -0.1220    -0.9790 ha         1 ONS       0.225000
     51 H17          5.3650    -3.7370     0.4910 h1         1 ONS       0.056367
     52 H18          6.1390    -2.4440     1.4590 h1         1 ONS       0.056367
     53 H19          4.5910    -3.1310     1.9860 h1         1 ONS       0.056367
     54 H20          7.2520    -1.3400    -0.1660 ha         1 ONS       0.119000
     55 H21          7.9900     0.5450    -1.6320 ha         1 ONS       0.124000
@<TRIPOS>BOND
     1     1     2 1   
     2     2     3 1   
     3     2     4 1   
     4     4     5 1   
     5     4    11 1   
     6     4    36 1   
     7     5     6 ar  
     8     5    10 ar  
     9     6     7 ar  
    10     6    37 1   
    11     7     8 ar  
    12     8     9 ar  
    13     8    38 1   
    14     9    10 ar  
    15     9    39 1   
    16    10    40 1   
    17    11    12 ar  
    18    11    14 ar  
    19    12    13 ar  
    20    12    41 1   
    21    13    16 ar  
    22    13    42 1   
    23    14    15 ar  
    24    14    43 1   
    25    15    16 ar  
    26    15    44 1   
    27    16    17 1   
    28    17    18 1   
    29    17    20 1   
    30    17    21 1   
    31    18    19 1   
    32    18    45 1   
    33    18    46 1   
    34    19    20 1   
    35    20    47 1   
    36    20    48 1   
    37    21    22 1   
    38    21    49 1   
    39    22    23 2   
    40    22    24 1   
    41    24    25 2   
    42    24    26 1   
    43    25    31 1   
    44    25    50 1   
    45    26    27 1   
    46    26    28 1   
    47    27    51 1   
    48    27    52 1   
    49    27    53 1   
    50    28    29 ar  
    51    28    31 ar  
    52    29    30 ar  
    53    29    54 1   
    54    30    34 ar  
    55    30    55 1   
    56    31    32 ar  
    57    32    33 1   
    58    32    34 ar  
    59    34    35 1   
@<TRIPOS>SUBSTRUCTURE
     1 ONS         1 TEMP              0 ****  ****    0 ROOT
