@<TRIPOS>MOLECULE
ONS
   55    59     1     0     0
SMALL
bcc


@<TRIPOS>ATOM
      1 O2          -3.1660     3.4860     0.5060 o          1 ONS      -0.813800
      2 C19         -4.3480     3.1020     0.5480 c          1 ONS       0.938600
      3 O3          -5.3210     3.6960     1.0420 o          1 ONS      -0.813800
      4 C18         -4.6310     1.7410    -0.1560 c3         1 ONS      -0.145100
      5 C20         -5.9840     1.1650     0.1590 ca         1 ONS      -0.110600
      6 C21         -6.8690     0.8360    -0.8620 ca         1 ONS       0.379200
      7 N2          -8.0680     0.2930    -0.6750 nb         1 ONS      -0.688000
      8 C22         -8.4460     0.0470     0.5720 ca         1 ONS       0.368200
      9 C23         -7.6480     0.3340     1.6710 ca         1 ONS      -0.258300
     10 C24         -6.4040     0.9010     1.4600 ca         1 ONS      -0.063000
     11 C15         -3.5590     0.7060     0.0830 ca         1 ONS       0.023700
     12 C16         -3.1340    -0.1100    -0.9620 ca         1 ONS      -0.122500
     13 C17         -2.2010    -1.1150    -0.7570 ca         1 ONS      -0.119500
     14 C14         -3.0110     0.4860     1.3440 ca         1 ONS      -0.122500
     15 C13         -2.0820    -0.5220     1.5540 ca         1 ONS      -0.119500
     16 C12         -1.6720    -1.3430     0.5080 ca         1 ONS      -0.143300
     17 C9          -0.6120    -2.3980     0.7050 cy         1 ONS       0.125700
     18 C10         -0.9260    -3.7690     0.0640 cy         1 ONS       0.115400
     19 O1          -1.0040    -4.3980     1.3430 oq         1 ONS      -0.398600
     20 C11         -0.6810    -3.1900     2.0310 cy         1 ONS       0.115400
     21 N1           0.6540    -1.7830     0.3620 ns         1 ONS      -0.543900
     22 C8           1.8490    -2.4050     0.3530 c          1 ONS       0.691300
     23 O            2.0210    -3.5660     0.6890 o          1 ONS      -0.604100
     24 C6           2.9620    -1.5620    -0.1430 cc         1 ONS      -0.128300
     25 C7           2.9080    -0.6020    -1.1210 cd         1 ONS      -0.137200
     26 N            4.2560    -1.7350     0.2780 na         1 ONS      -0.018400
     27 C25          4.7320    -2.6310     1.3130 c3         1 ONS       0.038600
     28 C5           5.0540    -0.8870    -0.4300 ca         1 ONS      -0.037200
     29 C            6.4340    -0.6860    -0.3700 ca         1 ONS      -0.135000
     30 C1           6.9840     0.2470    -1.2180 ca         1 ONS      -0.100000
     31 C4           4.2380    -0.1590    -1.3220 ca         1 ONS      -0.101800
     32 C3           4.8250     0.7810    -2.1750 ca         1 ONS       0.085400
     33 CL           3.8260     1.6610    -3.2630 cl         1 ONS      -0.070400
     34 C2           6.1880     0.9770    -2.1180 ca         1 ONS      -0.007600
     35 CL1          6.9510     2.1270    -3.1540 cl         1 ONS      -0.098400
     36 H2          -4.6200     1.9650    -1.2300 hc         1 ONS       0.050700
     37 H3          -6.5840     1.0260    -1.8930 h4         1 ONS       0.004100
     38 H4          -9.4250    -0.3990     0.7070 h4         1 ONS      -0.004900
     39 H5          -8.0010     0.1190     2.6710 ha         1 ONS       0.122000
     40 H6          -5.7660     1.1310     2.3040 ha         1 ONS       0.143000
     41 H7          -3.5410     0.0400    -1.9550 ha         1 ONS       0.139000
     42 H8          -1.8910    -1.7280    -1.5960 ha         1 ONS       0.117000
     43 H9          -3.3020     1.1060     2.1830 ha         1 ONS       0.139000
     44 H10         -1.6740    -0.6590     2.5490 ha         1 ONS       0.117000
     45 H11         -1.8770    -3.8080    -0.4740 h1         1 ONS       0.057200
     46 H12         -0.1450    -4.1880    -0.5730 h1         1 ONS       0.057200
     47 H13          0.2550    -3.2510     2.5880 h1         1 ONS       0.057200
     48 H14         -1.4760    -2.8800     2.7130 h1         1 ONS       0.057200
     49 H15          0.6400    -0.7910     0.1860 hn         1 ONS       0.339500
     50 H16          2.0300    -0.2830    -1.6590 ha         1 ONS       0.175000
     51 H17          4.8890    -3.6360     0.9270 h1         1 ONS       0.056367
     52 H18          5.6750    -2.2530     1.6980 h1         1 ONS       0.056367
     53 H19          4.0290    -2.6710     2.1380 h1         1 ONS       0.056367
     54 H20          7.0700    -1.2390     0.3080 ha         1 ONS       0.137000
     55 H21          8.0500     0.4260    -1.2000 ha         1 ONS       0.142000
@<TRIPOS>BOND
     1     1     2 1   
     2     2     3 1   
     3     2     4 1   
     4     4     5 1   
     5     4    11 1   
     6     4    36 1   
     7     5     6 ar  
     8     5    10 ar  
     9     6     7 ar  
    10     6    37 1   
    11     7     8 ar  
    12     8     9 ar  
    13     8    38 1   
    14     9    10 ar  
    15     9    39 1   
    16    10    40 1   
    17    11    12 ar  
    18    11    14 ar  
    19    12    13 ar  
    20    12    41 1   
    21    13    16 ar  
    22    13    42 1   
    23    14    15 ar  
    24    14    43 1   
    25    15    16 ar  
    26    15    44 1   
    27    16    17 1   
    28    17    18 1   
    29    17    20 1   
    30    17    21 1   
    31    18    19 1   
    32    18    45 1   
    33    18    46 1   
    34    19    20 1   
    35    20    47 1   
    36    20    48 1   
    37    21    22 1   
    38    21    49 1   
    39    22    23 2   
    40    22    24 1   
    41    24    25 2   
    42    24    26 1   
    43    25    31 1   
    44    25    50 1   
    45    26    27 1   
    46    26    28 1   
    47    27    51 1   
    48    27    52 1   
    49    27    53 1   
    50    28    29 ar  
    51    28    31 ar  
    52    29    30 ar  
    53    29    54 1   
    54    30    34 ar  
    55    30    55 1   
    56    31    32 ar  
    57    32    33 1   
    58    32    34 ar  
    59    34    35 1   
@<TRIPOS>SUBSTRUCTURE
     1 ONS         1 TEMP              0 ****  ****    0 ROOT
