@<TRIPOS>MOLECULE
ONT
   24    23     1     0     0
SMALL
No Charge or Current Charge


@<TRIPOS>ATOM
      1 C01         -8.5330    19.7340   -39.9740 c3         1 ONT      -0.085100
      2 C02         -7.5340    18.6540   -39.5050 c3         1 ONT       0.133500
      3 C03         -6.1870    19.2190   -38.9480 c3         1 ONT       0.128600
      4 C05         -5.5720    21.3760   -39.9220 c3         1 ONT       0.156600
      5 C06         -4.8100    21.9610   -41.1300 c3         1 ONT       0.152600
      6 C08         -4.2280    24.0810   -42.1430 c3         1 ONT       0.149900
      7 N09         -8.2010    17.7740   -38.5140 n8         1 ONT      -0.993200
      8 O04         -5.4780    19.9360   -39.9820 os         1 ONT      -0.459000
      9 O07         -4.8970    23.3980   -41.0700 os         1 ONT      -0.458000
     10 H011        -8.1440    20.2680   -40.8490 hc         1 ONT       0.040033
     11 H013        -9.4880    19.2810   -40.2670 hc         1 ONT       0.040033
     12 H012        -8.7290    20.4640   -39.1780 hc         1 ONT       0.040033
     13 H021        -7.2890    18.0310   -40.3780 h1         1 ONT       0.070700
     14 H032        -6.3760    19.8590   -38.0750 h1         1 ONT       0.036200
     15 H031        -5.5720    18.3750   -38.6090 h1         1 ONT       0.036200
     16 H052        -5.1210    21.7510   -38.9940 h1         1 ONT       0.035200
     17 H051        -6.6160    21.7120   -39.9570 h1         1 ONT       0.035200
     18 H061        -5.2590    21.5850   -42.0590 h1         1 ONT       0.034200
     19 H062        -3.7620    21.6350   -41.0920 h1         1 ONT       0.034200
     20 H082        -4.3360    25.1670   -42.0310 h1         1 ONT       0.029700
     21 H083        -3.1560    23.8430   -42.1480 h1         1 ONT       0.029700
     22 H081        -4.6520    23.7930   -43.1140 h1         1 ONT       0.029700
     23 H1          -7.5410    17.0520   -38.2020 hn         1 ONT       0.391500
     24 H091        -8.3930    18.3110   -37.6600 hn         1 ONT       0.391500
@<TRIPOS>BOND
     1     1     2 1   
     2     1    10 1   
     3     1    11 1   
     4     1    12 1   
     5     2     3 1   
     6     2     7 1   
     7     2    13 1   
     8     3     8 1   
     9     3    14 1   
    10     3    15 1   
    11     4     5 1   
    12     4     8 1   
    13     4    16 1   
    14     4    17 1   
    15     5     9 1   
    16     5    18 1   
    17     5    19 1   
    18     6     9 1   
    19     6    20 1   
    20     6    21 1   
    21     6    22 1   
    22     7    23 1   
    23     7    24 1   
@<TRIPOS>SUBSTRUCTURE
     1 ONT         1 TEMP              0 ****  ****    0 ROOT
