@<TRIPOS>MOLECULE
ONT
   24    23     1     0     0
SMALL
bcc


@<TRIPOS>ATOM
      1 C01         -8.4930    19.7120   -40.0300 c3         1 ONT      -0.085100
      2 C02         -7.5250    18.6570   -39.5170 c3         1 ONT       0.133500
      3 C03         -6.2030    19.2580   -39.0320 c3         1 ONT       0.105400
      4 C05         -5.5500    21.3650   -39.9110 c3         1 ONT       0.133400
      5 C06         -4.8350    21.9580   -41.1090 c3         1 ONT       0.129400
      6 C08         -4.2700    24.0090   -42.0750 c3         1 ONT       0.126700
      7 N09         -8.1660    17.8760   -38.4660 n8         1 ONT      -0.882800
      8 O04         -5.5100    19.9640   -40.0390 os         1 ONT      -0.412600
      9 O07         -4.8920    23.3570   -40.9990 os         1 ONT      -0.411600
     10 H011        -8.0860    20.2510   -40.8850 hc         1 ONT       0.040033
     11 H013        -9.4270    19.2460   -40.3460 hc         1 ONT       0.040033
     12 H012        -8.7290    20.4430   -39.2520 hc         1 ONT       0.040033
     13 H021        -7.3040    17.9680   -40.3400 h1         1 ONT       0.070700
     14 H032        -6.4020    19.9000   -38.1630 h1         1 ONT       0.036200
     15 H031        -5.5560    18.4450   -38.6840 h1         1 ONT       0.036200
     16 H052        -5.0600    21.6900   -38.9840 h1         1 ONT       0.035200
     17 H051        -6.5820    21.7370   -39.8810 h1         1 ONT       0.035200
     18 H061        -5.3170    21.6160   -42.0370 h1         1 ONT       0.034200
     19 H062        -3.7940    21.6060   -41.1380 h1         1 ONT       0.034200
     20 H082        -4.3800    25.0830   -41.9290 h1         1 ONT       0.029700
     21 H083        -3.2000    23.7760   -42.1360 h1         1 ONT       0.029700
     22 H081        -4.7270    23.7420   -43.0360 h1         1 ONT       0.029700
     23 H1          -7.5480    17.1360   -38.1570 hn         1 ONT       0.336300
     24 H091        -8.3190    18.4640   -37.6540 hn         1 ONT       0.336300
@<TRIPOS>BOND
     1     1     2 1   
     2     1    10 1   
     3     1    11 1   
     4     1    12 1   
     5     2     3 1   
     6     2     7 1   
     7     2    13 1   
     8     3     8 1   
     9     3    14 1   
    10     3    15 1   
    11     4     5 1   
    12     4     8 1   
    13     4    16 1   
    14     4    17 1   
    15     5     9 1   
    16     5    18 1   
    17     5    19 1   
    18     6     9 1   
    19     6    20 1   
    20     6    21 1   
    21     6    22 1   
    22     7    23 1   
    23     7    24 1   
@<TRIPOS>SUBSTRUCTURE
     1 ONT         1 TEMP              0 ****  ****    0 ROOT
