@<TRIPOS>MOLECULE
ONU
   45    48     1     0     0
SMALL
abcg2


@<TRIPOS>ATOM
      1 N1           7.1790    -1.9590    20.9330 nj         1 ONU      -0.429800
      2 C4          12.0670     0.8740    22.9330 ca         1 ONU      -0.104000
      3 C5          11.1390    -0.1150    22.6040 ca         1 ONU      -0.150000
      4 C6          10.2370    -0.5930    23.5540 ca         1 ONU       0.270000
      5 C7           9.0210    -1.9860    21.9470 cy         1 ONU       0.181500
      6 C8           8.2530    -0.9620    21.0440 cy         1 ONU       0.083000
      7 C10          6.0000    -1.9850    20.3200 c          1 ONU       0.615300
      8 C13          5.4990     0.4030    17.3710 c          1 ONU       0.557200
      9 C15          4.2960     2.6850    20.0370 ca         1 ONU      -0.166000
     10 C17          4.4310     1.6000    22.1940 ca         1 ONU      -0.146000
     11 O2           5.6360     0.4520    16.1440 o          1 ONU      -0.549000
     12 C12          5.8320    -0.7500    18.1860 cc         1 ONU      -0.256200
     13 N2           5.0070     1.4820    18.0700 ns         1 ONU      -0.374100
     14 C14          4.8120     1.5330    19.4310 ca         1 ONU       0.102600
     15 C19          5.1400     0.4050    20.2120 ca         1 ONU      -0.121800
     16 C18          4.9390     0.4620    21.6020 ca         1 ONU      -0.049000
     17 C16          4.1100     2.7130    21.4050 ca         1 ONU      -0.054000
     18 C11          5.6630    -0.7480    19.5280 cd         1 ONU      -0.034400
     19 O1           5.2170    -2.9370    20.3820 o          1 ONU      -0.587100
     20 C9           7.8110    -2.9420    21.8170 cy         1 ONU       0.083000
     21 N            9.3220    -1.6080    23.2980 nu         1 ONU      -0.922200
     22 C1          10.2710    -0.0360    24.8540 ca         1 ONU       0.079100
     23 O            9.3460    -0.5470    25.7180 os         1 ONU      -0.365100
     24 C            9.2850    -0.0110    27.0370 c3         1 ONU       0.152900
     25 C3          12.0960     1.4070    24.2100 ca         1 ONU      -0.114000
     26 C2          11.1900     0.9520    25.1740 ca         1 ONU      -0.154000
     27 H2          11.1200    -0.5140    21.6000 ha         1 ONU       0.114000
     28 H3           9.9140    -2.3690    21.4580 h1         1 ONU       0.085700
     29 H4           8.7200    -0.7150    20.0920 h1         1 ONU       0.066950
     30 H5           7.9490    -0.0540    21.5660 h1         1 ONU       0.066950
     31 H6           4.0480     3.5420    19.4230 ha         1 ONU       0.122000
     32 H7           4.2820     1.6340    23.2650 ha         1 ONU       0.121000
     33 H8           6.2280    -1.6120    17.6660 ha         1 ONU       0.218000
     34 H9           4.7690     2.2960    17.5170 hn         1 ONU       0.329500
     35 H10          5.1870    -0.3990    22.2100 ha         1 ONU       0.124000
     36 H11          3.7110     3.6050    21.8690 ha         1 ONU       0.119000
     37 H12          7.2560    -3.0980    22.7440 h1         1 ONU       0.066950
     38 H13          8.0080    -3.9010    21.3390 h1         1 ONU       0.066950
     39 H14          8.5270    -1.5950    23.9210 hn         1 ONU       0.478000
     40 H15          8.4800    -0.5410    27.5390 h1         1 ONU       0.042033
     41 H16         10.2240    -0.1770    27.5710 h1         1 ONU       0.042033
     42 H17          9.0650     1.0600    27.0150 h1         1 ONU       0.042033
     43 H18         12.8090     2.1780    24.4710 ha         1 ONU       0.115000
     44 H19         11.2110     1.3740    26.1680 ha         1 ONU       0.117000
     45 H1          12.7580     1.2250    22.1760 ha         1 ONU       0.115000
@<TRIPOS>BOND
     1     1     6 1   
     2     1     7 1   
     3     1    20 1   
     4     2     3 ar  
     5     2    25 ar  
     6     2    45 1   
     7     3     4 ar  
     8     3    27 1   
     9     4    21 1   
    10     4    22 ar  
    11     5     6 1   
    12     5    20 1   
    13     5    21 1   
    14     5    28 1   
    15     6    29 1   
    16     6    30 1   
    17     7    18 1   
    18     7    19 2   
    19     8    11 2   
    20     8    12 1   
    21     8    13 1   
    22     9    14 ar  
    23     9    17 ar  
    24     9    31 1   
    25    10    16 ar  
    26    10    17 ar  
    27    10    32 1   
    28    12    18 2   
    29    12    33 1   
    30    13    14 1   
    31    13    34 1   
    32    14    15 ar  
    33    15    16 ar  
    34    15    18 1   
    35    16    35 1   
    36    17    36 1   
    37    20    37 1   
    38    20    38 1   
    39    21    39 1   
    40    22    23 1   
    41    22    26 ar  
    42    23    24 1   
    43    24    40 1   
    44    24    41 1   
    45    24    42 1   
    46    25    26 ar  
    47    25    43 1   
    48    26    44 1   
@<TRIPOS>SUBSTRUCTURE
     1 ONU         1 TEMP              0 ****  ****    0 ROOT
