@<TRIPOS>MOLECULE
ONU
   45    48     1     0     0
SMALL
No Charge or Current Charge


@<TRIPOS>ATOM
      1 N1           7.6970    -0.6760    20.6650 nj         1 ONU      -0.429800
      2 C4          12.9580     0.5610    23.6940 ca         1 ONU      -0.104000
      3 C5          11.8040    -0.0040    23.1260 ca         1 ONU      -0.150000
      4 C6          10.8870    -0.7110    23.9280 ca         1 ONU       0.270000
      5 C7           9.2420    -1.2110    21.9890 cy         1 ONU       0.181500
      6 C8           8.6720     0.1500    21.4590 cy         1 ONU       0.083000
      7 C10          6.4450    -0.0670    21.0370 c          1 ONU       0.615300
      8 C13          5.4710     0.1790    17.2470 c          1 ONU       0.557200
      9 C15          2.3590     1.7610    18.4860 ca         1 ONU      -0.166000
     10 C17          2.3100     1.9470    20.8930 ca         1 ONU      -0.146000
     11 O2           5.9350    -0.1140    16.1570 o          1 ONU      -0.549000
     12 C12          6.1510    -0.0700    18.5220 cc         1 ONU      -0.256200
     13 N2           4.2540     0.7730    17.3750 ns         1 ONU      -0.374100
     14 C14          3.6230     1.1540    18.5630 ca         1 ONU       0.102600
     15 C19          4.2690     0.9210    19.8020 ca         1 ONU      -0.121800
     16 C18          3.5760     1.3390    20.9720 ca         1 ONU      -0.049000
     17 C16          1.6980     2.1600    19.6530 ca         1 ONU      -0.054000
     18 C11          5.6270     0.2600    19.7810 cd         1 ONU      -0.034400
     19 O1           6.0060     0.1940    22.1540 o          1 ONU      -0.587100
     20 C9           7.8210    -1.7930    21.6660 cy         1 ONU       0.083000
     21 N            9.7300    -1.2770    23.3680 nu         1 ONU      -0.922200
     22 C1          11.1370    -0.8540    25.3200 ca         1 ONU       0.079100
     23 O           10.2210    -1.5560    26.0940 os         1 ONU      -0.365100
     24 C           10.3930    -1.7480    27.5100 c3         1 ONU       0.152900
     25 C3          13.2060     0.4220    25.0680 ca         1 ONU      -0.114000
     26 C2          12.3020    -0.2820    25.8820 ca         1 ONU      -0.154000
     27 H2          11.6300     0.1110    22.0610 ha         1 ONU       0.114000
     28 H3          10.0100    -1.6260    21.3240 h1         1 ONU       0.085700
     29 H4           9.3760     0.7080    20.8320 h1         1 ONU       0.066950
     30 H5           8.2740     0.7990    22.2480 h1         1 ONU       0.066950
     31 H6           1.8870     1.9260    17.5200 ha         1 ONU       0.122000
     32 H7           1.8030     2.2560    21.8040 ha         1 ONU       0.121000
     33 H8           7.1110    -0.5460    18.3720 ha         1 ONU       0.218000
     34 H9           3.7610     0.9560    16.5110 hn         1 ONU       0.329500
     35 H10          3.9770     1.2150    21.9680 ha         1 ONU       0.124000
     36 H11          0.7180     2.6310    19.5970 ha         1 ONU       0.119000
     37 H12          7.1370    -1.7980    22.5220 h1         1 ONU       0.066950
     38 H13          7.8480    -2.7850    21.2030 h1         1 ONU       0.066950
     39 H14          9.1510    -1.7660    24.0550 hn         1 ONU       0.478000
     40 H15          9.5560    -2.3270    27.9200 h1         1 ONU       0.042033
     41 H16         11.3200    -2.2960    27.7200 h1         1 ONU       0.042033
     42 H17         10.4270    -0.7840    28.0340 h1         1 ONU       0.042033
     43 H18         14.1010     0.8610    25.5040 ha         1 ONU       0.115000
     44 H19         12.5220    -0.3720    26.9420 ha         1 ONU       0.117000
     45 H1          13.6610     1.1060    23.0670 ha         1 ONU       0.115000
@<TRIPOS>BOND
     1     1     6 1   
     2     1     7 1   
     3     1    20 1   
     4     2     3 ar  
     5     2    25 ar  
     6     2    45 1   
     7     3     4 ar  
     8     3    27 1   
     9     4    21 1   
    10     4    22 ar  
    11     5     6 1   
    12     5    20 1   
    13     5    21 1   
    14     5    28 1   
    15     6    29 1   
    16     6    30 1   
    17     7    18 1   
    18     7    19 2   
    19     8    11 2   
    20     8    12 1   
    21     8    13 1   
    22     9    14 ar  
    23     9    17 ar  
    24     9    31 1   
    25    10    16 ar  
    26    10    17 ar  
    27    10    32 1   
    28    12    18 2   
    29    12    33 1   
    30    13    14 1   
    31    13    34 1   
    32    14    15 ar  
    33    15    16 ar  
    34    15    18 1   
    35    16    35 1   
    36    17    36 1   
    37    20    37 1   
    38    20    38 1   
    39    21    39 1   
    40    22    23 1   
    41    22    26 ar  
    42    23    24 1   
    43    24    40 1   
    44    24    41 1   
    45    24    42 1   
    46    25    26 ar  
    47    25    43 1   
    48    26    44 1   
@<TRIPOS>SUBSTRUCTURE
     1 ONU         1 TEMP              0 ****  ****    0 ROOT
