@<TRIPOS>MOLECULE
ONV
   52    55     1     0     0
SMALL
bcc


@<TRIPOS>ATOM
      1 C1           5.6850     2.2940     0.7860 c5         1 ONV       0.131100
      2 C2           5.6110     3.7760     0.3930 c5         1 ONV       0.066000
      3 C3           4.3660     1.5940     0.5520 c3         1 ONV       0.123400
      4 C4           3.5050    -0.6070     0.6900 ca         1 ONV       0.171100
      5 C5           3.7640    -1.9720     0.9780 ca         1 ONV      -0.034600
      6 C6           2.2450    -0.2150     0.2810 ca         1 ONV      -0.242000
      7 C7           1.2660    -1.2040     0.1680 ca         1 ONV      -0.002200
      8 C8           1.5180    -2.5620     0.4420 ca         1 ONV      -0.144800
      9 C9           2.7990    -2.9400     0.8610 ca         1 ONV      -0.029000
     10 C10         -0.6180    -2.3410    -0.1980 cc         1 ONV      -0.138300
     11 C11          0.3070    -3.2680     0.1970 cd         1 ONV      -0.108200
     12 C12         -2.0290    -2.6060    -0.5380 c          1 ONV       0.693300
     13 C13         -4.2750    -1.6480    -0.8150 c3         1 ONV       0.174000
     14 C14         -5.0080    -0.4460    -0.2720 ca         1 ONV      -0.147300
     15 C15         -6.2020    -0.6280     0.4200 ca         1 ONV      -0.143500
     16 C16         -6.9200     0.4580     0.9010 ca         1 ONV      -0.109000
     17 C17         -6.4620     1.7580     0.7120 ca         1 ONV      -0.118600
     18 O5          -8.2940     2.6990     1.8650 o          1 ONV      -0.822800
     19 C20         -7.2410     2.9510     1.2480 c          1 ONV       0.921200
     20 O4          -6.7570     4.0780     1.0250 o          1 ONV      -0.822800
     21 C18         -5.2660     1.9370     0.0210 ca         1 ONV      -0.109000
     22 C19         -4.5510     0.8560    -0.4710 ca         1 ONV      -0.143500
     23 C21         -4.5390    -1.8390    -2.3080 c3         1 ONV       0.128400
     24 O6          -4.0400    -0.7370    -3.0180 oh         1 ONV      -0.587800
     25 N2          -2.8540    -1.5430    -0.5220 ns         1 ONV      -0.549900
     26 O3          -2.3970    -3.7410    -0.8110 o          1 ONV      -0.610100
     27 CL           5.3600    -2.4080     1.4900 cl         1 ONV      -0.103400
     28 N11         -0.0360    -1.0930    -0.2030 na         1 ONV      -0.157400
     29 O2           4.5450     0.2260     0.8460 os         1 ONV      -0.292900
     30 N            6.2270     3.7220    -0.9090 ns         1 ONV      -0.605900
     31 O1           6.6920     1.7490    -0.0710 os         1 ONV      -0.375900
     32 C            6.9420     2.5960    -1.0890 c          1 ONV       0.829600
     33 O            7.6950     2.3100    -1.9880 o          1 ONV      -0.604500
     34 H1           6.0070     2.1570     1.8190 h1         1 ONV       0.096700
     35 H2           4.5830     4.1380     0.3420 h1         1 ONV       0.060200
     36 H3           6.1650     4.4110     1.0860 h1         1 ONV       0.060200
     37 H4           3.6140     2.0440     1.2100 h1         1 ONV       0.049200
     38 H5           4.0340     1.7370    -0.4840 h1         1 ONV       0.049200
     39 H6           2.0070     0.8160     0.0590 ha         1 ONV       0.140000
     40 H7           3.0320    -3.9730     1.0850 ha         1 ONV       0.150000
     41 H8           0.1320    -4.3240     0.3180 ha         1 ONV       0.170000
     42 H9          -4.6710    -2.5410    -0.3210 h1         1 ONV       0.062700
     43 H10         -6.5740    -1.6320     0.5870 ha         1 ONV       0.106500
     44 H11         -7.8450     0.2910     1.4370 ha         1 ONV       0.147000
     45 H13         -4.8930     2.9390    -0.1390 ha         1 ONV       0.147000
     46 H14         -3.6350     1.0420    -1.0180 ha         1 ONV       0.106500
     47 H15         -4.0740    -2.7760    -2.6310 h1         1 ONV       0.027200
     48 H16         -5.6230    -1.9590    -2.4330 h1         1 ONV       0.027200
     49 H17         -4.2050    -0.8850    -3.9540 ho         1 ONV       0.393000
     50 H18         -2.5400    -0.6930    -0.0820 hn         1 ONV       0.321500
     51 H19         -0.4450    -0.2510    -0.5770 hn         1 ONV       0.308700
     52 H20          6.4140     4.5460    -1.4580 hn         1 ONV       0.343500
@<TRIPOS>BOND
     1     1     2 1   
     2     1     3 1   
     3     1    31 1   
     4     1    34 1   
     5     2    30 1   
     6     2    35 1   
     7     2    36 1   
     8     3    29 1   
     9     3    37 1   
    10     3    38 1   
    11     4     5 ar  
    12     4     6 ar  
    13     4    29 1   
    14     5     9 ar  
    15     5    27 1   
    16     6     7 ar  
    17     6    39 1   
    18     7     8 ar  
    19     7    28 1   
    20     8     9 ar  
    21     8    11 1   
    22     9    40 1   
    23    10    11 2   
    24    10    12 1   
    25    10    28 1   
    26    11    41 1   
    27    12    25 1   
    28    12    26 2   
    29    13    14 1   
    30    13    23 1   
    31    13    25 1   
    32    13    42 1   
    33    14    15 ar  
    34    14    22 ar  
    35    15    16 ar  
    36    15    43 1   
    37    16    17 ar  
    38    16    44 1   
    39    17    19 1   
    40    17    21 ar  
    41    18    19 1   
    42    19    20 1   
    43    21    22 ar  
    44    21    45 1   
    45    22    46 1   
    46    23    24 1   
    47    23    47 1   
    48    23    48 1   
    49    24    49 1   
    50    25    50 1   
    51    28    51 1   
    52    30    32 1   
    53    30    52 1   
    54    31    32 1   
    55    32    33 2   
@<TRIPOS>SUBSTRUCTURE
     1 ONV         1 TEMP              0 ****  ****    0 ROOT
