@<TRIPOS>MOLECULE
ONV
   52    55     1     0     0
SMALL
No Charge or Current Charge


@<TRIPOS>ATOM
      1 C1           5.8840     2.2430     0.8170 c5         1 ONV       0.154300
      2 C2           5.7930     3.7930     0.9270 c5         1 ONV       0.066000
      3 C3           4.5030     1.5650     0.6270 c3         1 ONV       0.146600
      4 C4           3.6410    -0.7500     0.5080 ca         1 ONV       0.171100
      5 C5           3.9220    -2.1440     0.5440 ca         1 ONV       0.057000
      6 C6           2.3060    -0.3010     0.3230 ca         1 ONV      -0.224000
      7 C7           1.3040    -1.2680     0.1830 ca         1 ONV      -0.002200
      8 C8           1.5860    -2.6020     0.2200 ca         1 ONV      -0.144800
      9 C9           2.8850    -3.0900     0.3990 ca         1 ONV      -0.011000
     10 C10         -0.7070    -2.3500    -0.0970 cc         1 ONV      -0.138300
     11 C11          0.3250    -3.2730     0.0440 cd         1 ONV      -0.158200
     12 C12         -2.1340    -2.7230    -0.2950 c          1 ONV       0.626300
     13 C13         -4.4210    -1.7390    -0.6590 c3         1 ONV       0.174000
     14 C14         -5.1130    -0.4290    -0.2710 ca         1 ONV      -0.147300
     15 C15         -6.1640    -0.4410     0.6660 ca         1 ONV      -0.125500
     16 C16         -6.8060     0.7530     1.0390 ca         1 ONV      -0.091000
     17 C17         -6.4110     1.9920     0.4830 ca         1 ONV      -0.118600
     18 O5          -8.0170     3.2330     1.7010 o          1 ONV      -0.717500
     19 C20         -7.1060     3.2850     0.8860 c          1 ONV       0.710600
     20 O4          -6.7310     4.3350     0.3800 o          1 ONV      -0.717500
     21 C18         -5.3540     1.9980    -0.4560 ca         1 ONV      -0.091000
     22 C19         -4.7140     0.8030    -0.8270 ca         1 ONV      -0.125500
     23 C21         -4.7540    -2.2010    -2.1130 c3         1 ONV       0.151600
     24 O6          -4.0730    -1.4170    -3.1120 oh         1 ONV      -0.650000
     25 N2          -2.9810    -1.6470    -0.4050 ns         1 ONV      -0.482900
     26 O3          -2.5350    -3.8790    -0.3480 o          1 ONV      -0.610100
     27 Cl           5.5750    -2.7220     0.7730 cl         1 ONV      -0.195000
     28 N11         -0.0570    -1.0900    -0.0050 na         1 ONV      -0.207700
     29 O2           4.6910     0.1380     0.6550 os         1 ONV      -0.316100
     30 N            6.1470     4.1520    -0.4380 ns         1 ONV      -0.538900
     31 O1           6.7040     2.0120    -0.3560 os         1 ONV      -0.399100
     32 C            6.7180     3.1290    -1.1300 c          1 ONV       0.687100
     33 O            7.1800     3.2110    -2.2530 o          1 ONV      -0.529000
     34 H1           6.3700     1.8050     1.7000 h1         1 ONV       0.096700
     35 H2           4.7900     4.1370     1.2140 h1         1 ONV       0.060200
     36 H3           6.5170     4.1860     1.6530 h1         1 ONV       0.060200
     37 H4           3.8370     1.8790     1.4410 h1         1 ONV       0.049200
     38 H5           4.0660     1.8870    -0.3280 h1         1 ONV       0.049200
     39 H6           2.0460     0.7520     0.2900 ha         1 ONV       0.122000
     40 H7           3.0890    -4.1580     0.4250 ha         1 ONV       0.132000
     41 H8           0.1880    -4.3520     0.0230 ha         1 ONV       0.220000
     42 H9          -4.8100    -2.5210     0.0080 h1         1 ONV       0.062700
     43 H10         -6.4890    -1.3790     1.1110 ha         1 ONV       0.088500
     44 H11         -7.6150     0.7100     1.7650 ha         1 ONV       0.129000
     45 H13         -5.0240     2.9330    -0.9040 ha         1 ONV       0.129000
     46 H14         -3.9040     0.8400    -1.5520 ha         1 ONV       0.088500
     47 H15         -4.4700    -3.2560    -2.2170 h1         1 ONV       0.027200
     48 H16         -5.8410    -2.1440    -2.2600 h1         1 ONV       0.027200
     49 H17         -4.3490    -1.7670    -3.9870 ho         1 ONV       0.432000
     50 H18         -2.5710    -0.7270    -0.3600 hn         1 ONV       0.321500
     51 H19         -0.5060    -0.1830    -0.0650 hn         1 ONV       0.359000
     52 H20          6.1080     5.0730    -0.8600 hn         1 ONV       0.343500
@<TRIPOS>BOND
     1     1     2 1   
     2     1     3 1   
     3     1    31 1   
     4     1    34 1   
     5     2    30 1   
     6     2    35 1   
     7     2    36 1   
     8     3    29 1   
     9     3    37 1   
    10     3    38 1   
    11     4     5 ar  
    12     4     6 ar  
    13     4    29 1   
    14     5     9 ar  
    15     5    27 1   
    16     6     7 ar  
    17     6    39 1   
    18     7     8 ar  
    19     7    28 1   
    20     8     9 ar  
    21     8    11 1   
    22     9    40 1   
    23    10    11 2   
    24    10    12 1   
    25    10    28 1   
    26    11    41 1   
    27    12    25 1   
    28    12    26 2   
    29    13    14 1   
    30    13    23 1   
    31    13    25 1   
    32    13    42 1   
    33    14    15 ar  
    34    14    22 ar  
    35    15    16 ar  
    36    15    43 1   
    37    16    17 ar  
    38    16    44 1   
    39    17    19 1   
    40    17    21 ar  
    41    18    19 1   
    42    19    20 1   
    43    21    22 ar  
    44    21    45 1   
    45    22    46 1   
    46    23    24 1   
    47    23    47 1   
    48    23    48 1   
    49    24    49 1   
    50    25    50 1   
    51    28    51 1   
    52    30    32 1   
    53    30    52 1   
    54    31    32 1   
    55    32    33 2   
@<TRIPOS>SUBSTRUCTURE
     1 ONV         1 TEMP              0 ****  ****    0 ROOT
