@<TRIPOS>MOLECULE
ONW
   34    33     1     0     0
SMALL
bcc


@<TRIPOS>ATOM
      1 C01        -30.3840     9.9110   -24.7360 c3         1 ONW      -0.085100
      2 C02        -31.4070     9.5060   -23.6860 c3         1 ONW       0.168500
      3 C03        -30.7650     8.7580   -22.5290 c3         1 ONW       0.145400
      4 C05        -29.3190     6.9580   -22.0150 c3         1 ONW       0.147100
      5 C06        -27.9700     7.6420   -21.8290 c3         1 ONW      -0.124100
      6 C07        -29.1160     5.5260   -22.4640 c3         1 ONW       0.143400
      7 C09        -30.2230     3.5020   -22.8580 c3         1 ONW       0.102400
      8 C10        -31.5900     2.8500   -22.7020 c3         1 ONW       0.129400
      9 C12        -31.0120     0.6070   -22.2380 c3         1 ONW       0.118700
     10 N13        -32.4510     8.6960   -24.3040 n8         1 ONW      -0.867800
     11 O04        -30.1130     7.6030   -22.9870 os         1 ONW      -0.381600
     12 O11        -31.6030     1.5140   -23.1380 os         1 ONW      -0.401600
     13 H012       -29.5910    10.5180   -24.2960 hc         1 ONW       0.040033
     14 H011       -29.9270     9.0370   -25.2000 hc         1 ONW       0.040033
     15 H013       -30.8520    10.5060   -25.5230 hc         1 ONW       0.040033
     16 H021       -31.8070    10.4290   -23.2360 h1         1 ONW       0.008700
     17 H031       -30.0720     9.4460   -22.0280 h1         1 ONW       0.016700
     18 H032       -31.5350     8.4970   -21.7850 h1         1 ONW       0.016700
     19 H051       -29.8460     6.9440   -21.0480 h1         1 ONW       0.040700
     20 H062       -27.3980     7.1520   -21.0400 hc         1 ONW       0.041700
     21 H061       -27.3810     7.6060   -22.7470 hc         1 ONW       0.041700
     22 H063       -28.0810     8.6880   -21.5420 hc         1 ONW       0.041700
     23 H072       -28.3990     5.0410   -21.7860 h1         1 ONW       0.029200
     24 H071       -28.6620     5.5150   -23.4670 h1         1 ONW       0.029200
     25 H091       -29.8920     3.4260   -23.9030 h1         1 ONW       0.026200
     26 H092       -29.4710     2.9840   -22.2460 h1         1 ONW       0.026200
     27 H102       -31.9180     2.9270   -21.6560 h1         1 ONW       0.057700
     28 H101       -32.3180     3.3890   -23.3140 h1         1 ONW       0.057700
     29 H121       -31.1960    -0.3990   -22.6120 h1         1 ONW       0.028033
     30 H122       -29.9280     0.7390   -22.1450 h1         1 ONW       0.028033
     31 H123       -31.4480     0.6870   -21.2350 h1         1 ONW       0.028033
     32 H1         -33.1720     8.4970   -23.6210 hn         1 ONW       0.334300
     33 H132       -32.9070     9.2430   -25.0240 hn         1 ONW       0.334300
     34 O08        -30.3430     4.8440   -22.4580 os         1 ONW      -0.399600
@<TRIPOS>BOND
     1     1     2 1   
     2     1    13 1   
     3     1    14 1   
     4     1    15 1   
     5     2     3 1   
     6     2    10 1   
     7     2    16 1   
     8     3    11 1   
     9     3    17 1   
    10     3    18 1   
    11     4     5 1   
    12     4     6 1   
    13     4    11 1   
    14     4    19 1   
    15     5    20 1   
    16     5    21 1   
    17     5    22 1   
    18     6    23 1   
    19     6    24 1   
    20     6    34 1   
    21     7     8 1   
    22     7    25 1   
    23     7    26 1   
    24     7    34 1   
    25     8    12 1   
    26     8    27 1   
    27     8    28 1   
    28     9    12 1   
    29     9    29 1   
    30     9    30 1   
    31     9    31 1   
    32    10    32 1   
    33    10    33 1   
@<TRIPOS>SUBSTRUCTURE
     1 ONW         1 TEMP              0 ****  ****    0 ROOT
