@<TRIPOS>MOLECULE
ONW
   34    33     1     0     0
SMALL
No Charge or Current Charge


@<TRIPOS>ATOM
      1 C01        -30.4820     9.7370   -25.0560 c3         1 ONW      -0.085100
      2 C02        -31.3560     9.5510   -23.7970 c3         1 ONW       0.168500
      3 C03        -30.5560     8.9760   -22.5820 c3         1 ONW       0.168600
      4 C05        -29.3180     6.9800   -21.8560 c3         1 ONW       0.170300
      5 C06        -27.9860     7.7170   -21.5770 c3         1 ONW      -0.124100
      6 C07        -29.0810     5.5160   -22.3150 c3         1 ONW       0.166600
      7 C09        -30.2510     3.4350   -22.7280 c3         1 ONW       0.125600
      8 C10        -31.6740     2.8250   -22.6770 c3         1 ONW       0.152600
      9 C12        -30.9730     0.4840   -22.5060 c3         1 ONW       0.141900
     10 N13        -32.5710     8.7670   -24.1280 n8         1 ONW      -0.978200
     11 O04        -30.0250     7.6710   -22.9130 os         1 ONW      -0.428000
     12 O11        -31.6730     1.4970   -23.2540 os         1 ONW      -0.448000
     13 H012       -29.6130    10.3660   -24.8280 hc         1 ONW       0.040033
     14 H011       -30.1190     8.7730   -25.4310 hc         1 ONW       0.040033
     15 H013       -31.0510    10.2260   -25.8560 hc         1 ONW       0.040033
     16 H021       -31.7090    10.5460   -23.4950 h1         1 ONW       0.008700
     17 H031       -29.7480     9.6770   -22.3390 h1         1 ONW       0.016700
     18 H032       -31.2200     8.9110   -21.7090 h1         1 ONW       0.016700
     19 H051       -29.9140     6.9610   -20.9330 h1         1 ONW       0.040700
     20 H062       -27.3610     7.1290   -20.8940 hc         1 ONW       0.041700
     21 H061       -27.4230     7.8730   -22.5050 hc         1 ONW       0.041700
     22 H063       -28.1590     8.6900   -21.1020 hc         1 ONW       0.041700
     23 H072       -28.3750     5.0330   -21.6260 h1         1 ONW       0.029200
     24 H071       -28.6330     5.5130   -23.3180 h1         1 ONW       0.029200
     25 H091       -29.8640     3.3720   -23.7540 h1         1 ONW       0.026200
     26 H092       -29.5790     2.8760   -22.0650 h1         1 ONW       0.026200
     27 H102       -32.0280     2.8020   -21.6380 h1         1 ONW       0.057700
     28 H101       -32.3520     3.4740   -23.2460 h1         1 ONW       0.057700
     29 H121       -31.1070    -0.4970   -22.9790 h1         1 ONW       0.028033
     30 H122       -29.8960     0.6910   -22.4650 h1         1 ONW       0.028033
     31 H123       -31.3560     0.4210   -21.4790 h1         1 ONW       0.028033
     32 H1         -33.1420     8.6650   -23.2830 hn         1 ONW       0.389500
     33 H132       -33.1630     9.3210   -24.7570 hn         1 ONW       0.389500
     34 O08        -30.3370     4.8080   -22.3080 os         1 ONW      -0.446000
@<TRIPOS>BOND
     1     1     2 1   
     2     1    13 1   
     3     1    14 1   
     4     1    15 1   
     5     2     3 1   
     6     2    10 1   
     7     2    16 1   
     8     3    11 1   
     9     3    17 1   
    10     3    18 1   
    11     4     5 1   
    12     4     6 1   
    13     4    11 1   
    14     4    19 1   
    15     5    20 1   
    16     5    21 1   
    17     5    22 1   
    18     6    23 1   
    19     6    24 1   
    20     6    34 1   
    21     7     8 1   
    22     7    25 1   
    23     7    26 1   
    24     7    34 1   
    25     8    12 1   
    26     8    27 1   
    27     8    28 1   
    28     9    12 1   
    29     9    29 1   
    30     9    30 1   
    31     9    31 1   
    32    10    32 1   
    33    10    33 1   
@<TRIPOS>SUBSTRUCTURE
     1 ONW         1 TEMP              0 ****  ****    0 ROOT
