@<TRIPOS>MOLECULE
ONX
  122   121     1     0     0
SMALL
abcg2


@<TRIPOS>ATOM
      1 CBD        -12.9990     0.9980    -0.0040 c3         1 ONX      -0.075400
      2 CAQ          8.7010    -1.0900    -0.3720 c3         1 ONX      -0.073400
      3 CBC        -11.5050     0.9450    -0.3020 c3         1 ONX      -0.073400
      4 CAP          7.2660    -0.7460     0.0060 c3         1 ONX      -0.075400
      5 CBB        -10.9360    -0.4630    -0.1760 c3         1 ONX      -0.075400
      6 CAO          6.2670    -1.8640    -0.2670 c3         1 ONX      -0.073400
      7 CBA         -9.4430    -0.5600    -0.4640 c3         1 ONX      -0.073400
      8 CAN          4.8480    -1.4880     0.1380 c3         1 ONX      -0.075400
      9 CAZ         -8.9290    -1.9930    -0.3870 c3         1 ONX      -0.075400
     10 CAM          3.8280    -2.6000    -0.0720 c3         1 ONX      -0.076400
     11 CAY         -7.4330    -2.1270    -0.6450 c3         1 ONX      -0.072400
     12 CAL          2.4250    -2.1850     0.3520 c3         1 ONX      -0.064400
     13 CAH         -6.9730    -3.5850    -0.6250 c3         1 ONX      -0.048200
     14 CAF         -4.6510    -4.3300    -0.0500 c2         1 ONX      -0.270200
     15 OAJ         -0.2640    -1.8510     1.1290 o          1 ONX      -0.607100
     16 CAB         -2.3240    -3.7330     0.7110 c3         1 ONX       0.086700
     17 CAA         -2.5270    -4.2180     2.1440 c3         1 ONX      -0.114100
     18 CAG         -5.5070    -3.7360    -0.8760 c2         1 ONX      -0.178200
     19 CBE        -13.6170     2.3810    -0.1730 c3         1 ONX      -0.073400
     20 CAK          1.4100    -3.3040     0.1860 c3         1 ONX      -0.157400
     21 CAR          9.6790     0.0320    -0.0430 c3         1 ONX      -0.075400
     22 NAC         -0.9340    -3.8440     0.3130 ns         1 ONX      -0.508900
     23 CAD         -3.1840    -4.4730    -0.3250 c3         1 ONX       0.195500
     24 OAI         -2.8000    -5.8340    -0.4350 oh         1 ONX      -0.661000
     25 H1         -13.5200     0.2910    -0.6590 hc         1 ONX       0.036700
     26 H2         -13.1750     0.6450     1.0180 hc         1 ONX       0.036700
     27 H3           9.0090    -2.0030     0.1490 hc         1 ONX       0.037200
     28 H4           8.7540    -1.3190    -1.4420 hc         1 ONX       0.037200
     29 H5         -11.3210     1.3230    -1.3130 hc         1 ONX       0.038200
     30 H6         -10.9730     1.6200     0.3770 hc         1 ONX       0.038200
     31 H7           7.2290    -0.4870     1.0700 hc         1 ONX       0.037200
     32 H8           6.9550     0.1560    -0.5320 hc         1 ONX       0.037200
     33 H9         -11.1330    -0.8450     0.8320 hc         1 ONX       0.036700
     34 H10        -11.4760    -1.1280    -0.8600 hc         1 ONX       0.036700
     35 H11          6.2890    -2.1250    -1.3310 hc         1 ONX       0.036700
     36 H12          6.5750    -2.7660     0.2730 hc         1 ONX       0.036700
     37 H13         -9.2350    -0.1520    -1.4590 hc         1 ONX       0.039200
     38 H14         -8.8920     0.0680     0.2450 hc         1 ONX       0.039200
     39 H15          4.8430    -1.1950     1.1940 hc         1 ONX       0.039700
     40 H16          4.5340    -0.6000    -0.4210 hc         1 ONX       0.039700
     41 H17         -9.1620    -2.4090     0.5990 hc         1 ONX       0.037200
     42 H18         -9.4750    -2.6070    -1.1110 hc         1 ONX       0.037200
     43 H19          3.8220    -2.8990    -1.1260 hc         1 ONX       0.035200
     44 H20          4.1370    -3.4870     0.4930 hc         1 ONX       0.035200
     45 H21         -7.1850    -1.6820    -1.6150 hc         1 ONX       0.042200
     46 H22         -6.8750    -1.5580     0.1050 hc         1 ONX       0.042200
     47 H23          2.4470    -1.8610     1.3960 hc         1 ONX       0.054700
     48 H24          2.1140    -1.3140    -0.2320 hc         1 ONX       0.054700
     49 H25         -7.2360    -4.0440     0.3320 hc         1 ONX       0.047700
     50 H26         -7.5240    -4.1320    -1.3980 hc         1 ONX       0.047700
     51 H27         -5.0240    -4.7500     0.8820 ha         1 ONX       0.171000
     52 H29         -2.6010    -2.6780     0.6560 h1         1 ONX       0.084700
     53 H30         -2.2680    -5.2730     2.2580 hc         1 ONX       0.042700
     54 H31         -1.8930    -3.6520     2.8240 hc         1 ONX       0.042700
     55 H32         -3.5580    -4.0830     2.4720 hc         1 ONX       0.042700
     56 H33         -5.1360    -3.3170    -1.8090 ha         1 ONX       0.170000
     57 H35        -13.1050     3.0960     0.4810 hc         1 ONX       0.037700
     58 H36        -13.4470     2.7320    -1.1970 hc         1 ONX       0.037700
     59 H38          1.3950    -3.6540    -0.8510 hc         1 ONX       0.055200
     60 H39          1.7120    -4.1730     0.7810 hc         1 ONX       0.055200
     61 H40          9.3690     0.9450    -0.5640 hc         1 ONX       0.037200
     62 H41          9.6130     0.2610     1.0260 hc         1 ONX       0.037200
     63 H43         -0.6330    -4.7370    -0.0480 hn         1 ONX       0.319500
     64 H44         -2.9640    -4.0300    -1.3010 h1         1 ONX       0.080700
     65 H45         -3.0840    -6.3040     0.3560 ho         1 ONX       0.443000
     66 C1         -15.1100     2.3970     0.1270 c3         1 ONX      -0.074400
     67 C2         -15.7650     3.7570    -0.0770 c3         1 ONX      -0.073400
     68 C3         -17.2590     3.7470     0.2230 c3         1 ONX      -0.074400
     69 C4         -17.9370     5.0910    -0.0090 c3         1 ONX      -0.074400
     70 C5         -19.4310     5.0670     0.2900 c3         1 ONX      -0.075400
     71 C6          11.1250    -0.2860    -0.4000 c3         1 ONX      -0.073400
     72 C7          12.0850     0.8390    -0.0320 c3         1 ONX      -0.075400
     73 C8          13.5390     0.5410    -0.3740 c3         1 ONX      -0.073400
     74 C9          14.4860     1.6690     0.0150 c3         1 ONX      -0.074400
     75 C10         15.9440     1.3840    -0.3200 c3         1 ONX      -0.073400
     76 C11         16.8820     2.5170     0.0760 c3         1 ONX      -0.074400
     77 C12         18.3430     2.2400    -0.2560 c3         1 ONX      -0.074400
     78 C13         19.2750     3.3780     0.1400 c3         1 ONX      -0.074400
     79 C14         20.7370     3.1040    -0.1910 c3         1 ONX      -0.075400
     80 C15         21.6690     4.2450     0.1990 c3         1 ONX      -0.075400
     81 C16         23.1260     3.9590    -0.1350 c3         1 ONX      -0.088100
     82 H37        -15.6120     1.6580    -0.5080 hc         1 ONX       0.036700
     83 H42        -15.2750     2.0660     1.1580 hc         1 ONX       0.036700
     84 H46        -15.2720     4.5010     0.5580 hc         1 ONX       0.037700
     85 H47        -15.6050     4.0870    -1.1100 hc         1 ONX       0.037700
     86 H48        -17.7460     2.9860    -0.3980 hc         1 ONX       0.036700
     87 H49        -17.4170     3.4340     1.2610 hc         1 ONX       0.036700
     88 H50        -17.4550     5.8560     0.6100 hc         1 ONX       0.036700
     89 H51        -17.7820     5.4020    -1.0480 hc         1 ONX       0.036700
     90 H52        -19.9100     4.2910    -0.3180 hc         1 ONX       0.036700
     91 H53        -19.5860     4.7680     1.3340 hc         1 ONX       0.036700
     92 H55         11.4330    -1.2060     0.1100 hc         1 ONX       0.037200
     93 H56         11.2010    -0.4940    -1.4730 hc         1 ONX       0.037200
     94 H57         11.7740     1.7590    -0.5400 hc         1 ONX       0.036700
     95 H58         12.0020     1.0460     1.0410 hc         1 ONX       0.036700
     96 H59         13.8500    -0.3820     0.1280 hc         1 ONX       0.036700
     97 H60         13.6280     0.3440    -1.4480 hc         1 ONX       0.036700
     98 H61         14.1720     2.5920    -0.4870 hc         1 ONX       0.036700
     99 H62         14.3930     1.8650     1.0890 hc         1 ONX       0.036700
    100 H63         16.2590     0.4610     0.1800 hc         1 ONX       0.036700
    101 H64         16.0400     1.1920    -1.3950 hc         1 ONX       0.036700
    102 H65         16.5650     3.4390    -0.4230 hc         1 ONX       0.036700
    103 H66         16.7850     2.7090     1.1510 hc         1 ONX       0.036700
    104 H67         18.6620     1.3190     0.2460 hc         1 ONX       0.036700
    105 H68         18.4410     2.0470    -1.3300 hc         1 ONX       0.036700
    106 H69         18.9550     4.2980    -0.3610 hc         1 ONX       0.036700
    107 H70         19.1770     3.5710     1.2150 hc         1 ONX       0.036700
    108 H71         21.0590     2.1860     0.3140 hc         1 ONX       0.036700
    109 H72         20.8350     2.9070    -1.2640 hc         1 ONX       0.036700
    110 H73         21.3480     5.1620    -0.3060 hc         1 ONX       0.036700
    111 H74         21.5700     4.4410     1.2720 hc         1 ONX       0.036700
    112 H75         23.7740     4.7890     0.1470 hc         1 ONX       0.031367
    113 H76         23.4820     3.0700     0.3890 hc         1 ONX       0.031367
    114 H77         23.2580     3.7840    -1.2040 hc         1 ONX       0.031367
    115 C17        -20.1220     6.4010     0.0390 c3         1 ONX      -0.074400
    116 C18        -21.6140     6.3610     0.3430 c3         1 ONX      -0.088100
    117 H28        -19.6450     7.1770     0.6450 hc         1 ONX       0.036700
    118 H34        -19.9690     6.6960    -1.0040 hc         1 ONX       0.036700
    119 H54        -22.1190     5.6130    -0.2720 hc         1 ONX       0.031367
    120 H78        -21.7960     6.1030     1.3870 hc         1 ONX       0.031367
    121 H79        -22.0890     7.3230     0.1510 hc         1 ONX       0.031367
    122 CAE          0.0010    -2.9180     0.5930 c          1 ONX       0.599100
@<TRIPOS>BOND
     1     1     3 1   
     2     1    19 1   
     3     1    25 1   
     4     1    26 1   
     5     2     4 1   
     6     2    21 1   
     7     2    27 1   
     8     2    28 1   
     9     3     5 1   
    10     3    29 1   
    11     3    30 1   
    12     4     6 1   
    13     4    31 1   
    14     4    32 1   
    15     5     7 1   
    16     5    33 1   
    17     5    34 1   
    18     6     8 1   
    19     6    35 1   
    20     6    36 1   
    21     7     9 1   
    22     7    37 1   
    23     7    38 1   
    24     8    10 1   
    25     8    39 1   
    26     8    40 1   
    27     9    11 1   
    28     9    41 1   
    29     9    42 1   
    30    10    12 1   
    31    10    43 1   
    32    10    44 1   
    33    11    13 1   
    34    11    45 1   
    35    11    46 1   
    36    12    20 1   
    37    12    47 1   
    38    12    48 1   
    39    13    18 1   
    40    13    49 1   
    41    13    50 1   
    42    14    18 2   
    43    14    23 1   
    44    14    51 1   
    45    15   122 2   
    46    16    17 1   
    47    16    22 1   
    48    16    23 1   
    49    16    52 1   
    50    17    53 1   
    51    17    54 1   
    52    17    55 1   
    53    18    56 1   
    54    19    57 1   
    55    19    58 1   
    56    19    66 1   
    57    20    59 1   
    58    20    60 1   
    59    20   122 1   
    60    21    61 1   
    61    21    62 1   
    62    21    71 1   
    63    22    63 1   
    64    22   122 1   
    65    23    24 1   
    66    23    64 1   
    67    24    65 1   
    68    66    67 1   
    69    66    82 1   
    70    66    83 1   
    71    67    68 1   
    72    67    84 1   
    73    67    85 1   
    74    68    69 1   
    75    68    86 1   
    76    68    87 1   
    77    69    70 1   
    78    69    88 1   
    79    69    89 1   
    80    70    90 1   
    81    70    91 1   
    82    70   115 1   
    83    71    72 1   
    84    71    92 1   
    85    71    93 1   
    86    72    73 1   
    87    72    94 1   
    88    72    95 1   
    89    73    74 1   
    90    73    96 1   
    91    73    97 1   
    92    74    75 1   
    93    74    98 1   
    94    74    99 1   
    95    75    76 1   
    96    75   100 1   
    97    75   101 1   
    98    76    77 1   
    99    76   102 1   
   100    76   103 1   
   101    77    78 1   
   102    77   104 1   
   103    77   105 1   
   104    78    79 1   
   105    78   106 1   
   106    78   107 1   
   107    79    80 1   
   108    79   108 1   
   109    79   109 1   
   110    80    81 1   
   111    80   110 1   
   112    80   111 1   
   113    81   112 1   
   114    81   113 1   
   115    81   114 1   
   116   115   116 1   
   117   115   117 1   
   118   115   118 1   
   119   116   119 1   
   120   116   120 1   
   121   116   121 1   
@<TRIPOS>SUBSTRUCTURE
     1 ONX         1 TEMP              0 ****  ****    0 ROOT
