@<TRIPOS>MOLECULE
ONX
  122   121     1     0     0
SMALL
No Charge or Current Charge


@<TRIPOS>ATOM
      1 CBD        -12.9740     1.0480    -0.9560 c3         1 ONX      -0.075400
      2 CAQ          8.5880    -0.7240     0.9920 c3         1 ONX      -0.073400
      3 CBC        -11.5190     0.8880    -0.4620 c3         1 ONX      -0.073400
      4 CAP          7.1270    -0.3430     0.6640 c3         1 ONX      -0.075400
      5 CBB        -10.6230     0.1200    -1.4580 c3         1 ONX      -0.075400
      6 CAO          6.0960    -1.2720     1.3410 c3         1 ONX      -0.073400
      7 CBA         -9.1690    -0.0420    -0.9610 c3         1 ONX      -0.073400
      8 CAN          4.6340    -0.8930     1.0170 c3         1 ONX      -0.075400
      9 CAZ         -8.2720    -0.8090    -1.9570 c3         1 ONX      -0.075400
     10 CAM          3.6050    -1.8200     1.6990 c3         1 ONX      -0.076400
     11 CAY         -6.8200    -0.9740    -1.4590 c3         1 ONX      -0.072400
     12 CAL          2.1430    -1.4410     1.3770 c3         1 ONX      -0.064400
     13 CAH         -5.9200    -1.7390    -2.4530 c3         1 ONX      -0.048200
     14 CAF         -3.9310    -3.0600    -1.5960 c2         1 ONX      -0.270200
     15 OAJ         -0.8670    -0.9820     2.2040 o          1 ONX      -0.607100
     16 CAB         -2.3580    -2.6590     0.3910 c3         1 ONX       0.086700
     17 CAA         -3.3350    -3.2790     1.4190 c3         1 ONX      -0.114100
     18 CAG         -4.5060    -1.8940    -1.9330 c2         1 ONX      -0.178200
     19 CBE        -13.8700     1.8160     0.0410 c3         1 ONX      -0.073400
     20 CAK          1.1140    -2.3680     2.0670 c3         1 ONX      -0.157400
     21 CAR          9.6210     0.2070     0.3200 c3         1 ONX      -0.075400
     22 NAC         -0.9730    -2.8160     0.8550 ns         1 ONX      -0.508900
     23 CAD         -2.5230    -3.2110    -1.0590 c3         1 ONX       0.195500
     24 OAI         -2.1480    -4.5930    -1.1180 oh         1 ONX      -0.661000
     25 H1         -12.9710     1.5750    -1.9180 hc         1 ONX       0.036700
     26 H2         -13.4040     0.0540    -1.1360 hc         1 ONX       0.036700
     27 H3           8.7320    -0.6960     2.0790 hc         1 ONX       0.037200
     28 H4           8.7710    -1.7570     0.6700 hc         1 ONX       0.037200
     29 H5         -11.0890     1.8810    -0.2820 hc         1 ONX       0.038200
     30 H6         -11.5220     0.3600     0.5010 hc         1 ONX       0.038200
     31 H7           6.9440     0.6910     0.9830 hc         1 ONX       0.037200
     32 H8           6.9820    -0.3740    -0.4230 hc         1 ONX       0.037200
     33 H9         -11.0540    -0.8730    -1.6390 hc         1 ONX       0.036700
     34 H10        -10.6190     0.6480    -2.4190 hc         1 ONX       0.036700
     35 H11          6.2790    -2.3060     1.0220 hc         1 ONX       0.036700
     36 H12          6.2430    -1.2420     2.4280 hc         1 ONX       0.036700
     37 H13         -8.7380     0.9500    -0.7790 hc         1 ONX       0.039200
     38 H14         -9.1740    -0.5710     0.0000 hc         1 ONX       0.039200
     39 H15          4.4530     0.1420     1.3330 hc         1 ONX       0.039700
     40 H16          4.4860    -0.9270    -0.0700 hc         1 ONX       0.039700
     41 H17         -8.7050    -1.8010    -2.1410 hc         1 ONX       0.037200
     42 H18         -8.2660    -0.2800    -2.9180 hc         1 ONX       0.037200
     43 H19          3.7870    -2.8540     1.3830 hc         1 ONX       0.035200
     44 H20          3.7550    -1.7860     2.7860 hc         1 ONX       0.035200
     45 H21         -6.3870     0.0170    -1.2720 hc         1 ONX       0.042200
     46 H22         -6.8250    -1.5070    -0.5000 hc         1 ONX       0.042200
     47 H23          1.9620    -0.4040     1.6890 hc         1 ONX       0.054700
     48 H24          1.9900    -1.4780     0.2910 hc         1 ONX       0.054700
     49 H25         -6.3640    -2.7230    -2.6490 hc         1 ONX       0.047700
     50 H26         -5.9050    -1.2070    -3.4120 hc         1 ONX       0.047700
     51 H27         -4.4900    -3.9920    -1.6910 ha         1 ONX       0.171000
     52 H29         -2.5750    -1.5830     0.3430 h1         1 ONX       0.084700
     53 H30         -3.1640    -4.3550     1.5320 hc         1 ONX       0.042700
     54 H31         -3.2050    -2.8100     2.4020 hc         1 ONX       0.042700
     55 H32         -4.3770    -3.1230     1.1130 hc         1 ONX       0.042700
     56 H33         -3.9550    -0.9550    -1.8420 ha         1 ONX       0.170000
     57 H35        -13.8720     1.2890     1.0030 hc         1 ONX       0.037700
     58 H36        -13.4390     2.8090     0.2200 hc         1 ONX       0.037700
     59 H38          1.3030    -3.3980     1.7430 hc         1 ONX       0.055200
     60 H39          1.2490    -2.2900     3.1520 hc         1 ONX       0.055200
     61 H40          9.4780     0.1790    -0.7670 hc         1 ONX       0.037200
     62 H41          9.4380     1.2400     0.6410 hc         1 ONX       0.037200
     63 H43         -0.4430    -3.6070     0.5060 hn         1 ONX       0.319500
     64 H44         -1.8510    -2.6280    -1.7070 h1         1 ONX       0.080700
     65 H45         -2.7430    -5.0710    -0.5040 ho         1 ONX       0.443000
     66 C1         -15.3240     1.9750    -0.4530 c3         1 ONX      -0.074400
     67 C2         -16.2200     2.7430     0.5430 c3         1 ONX      -0.073400
     68 C3         -17.6750     2.9010     0.0510 c3         1 ONX      -0.074400
     69 C4         -18.5700     3.6700     1.0470 c3         1 ONX      -0.074400
     70 C5         -20.0260     3.8270     0.5550 c3         1 ONX      -0.075400
     71 C6          11.0810    -0.1740     0.6500 c3         1 ONX      -0.073400
     72 C7          12.1160     0.7580    -0.0170 c3         1 ONX      -0.075400
     73 C8          13.5750     0.3760     0.3140 c3         1 ONX      -0.073400
     74 C9          14.6110     1.3100    -0.3490 c3         1 ONX      -0.074400
     75 C10         16.0700     0.9260    -0.0180 c3         1 ONX      -0.073400
     76 C11         17.1060     1.8600    -0.6790 c3         1 ONX      -0.074400
     77 C12         18.5650     1.4760    -0.3470 c3         1 ONX      -0.074400
     78 C13         19.6010     2.4120    -1.0070 c3         1 ONX      -0.074400
     79 C14         21.0600     2.0280    -0.6750 c3         1 ONX      -0.075400
     80 C15         22.0960     2.9640    -1.3340 c3         1 ONX      -0.075400
     81 C16         23.5520     2.5820    -1.0030 c3         1 ONX      -0.088100
     82 H37        -15.3220     2.5020    -1.4160 hc         1 ONX       0.036700
     83 H42        -15.7550     0.9820    -0.6320 hc         1 ONX       0.036700
     84 H46        -16.2210     2.2170     1.5060 hc         1 ONX       0.037700
     85 H47        -15.7900     3.7370     0.7220 hc         1 ONX       0.037700
     86 H48        -17.6740     3.4270    -0.9120 hc         1 ONX       0.036700
     87 H49        -18.1050     1.9070    -0.1270 hc         1 ONX       0.036700
     88 H50        -18.5710     3.1440     2.0100 hc         1 ONX       0.036700
     89 H51        -18.1410     4.6640     1.2240 hc         1 ONX       0.036700
     90 H52        -20.0250     4.3530    -0.4080 hc         1 ONX       0.036700
     91 H53        -20.4560     2.8340     0.3770 hc         1 ONX       0.036700
     92 H55         11.2220    -0.1500     1.7380 hc         1 ONX       0.037200
     93 H56         11.2650    -1.2070     0.3270 hc         1 ONX       0.037200
     94 H57         11.9750     0.7330    -1.1040 hc         1 ONX       0.036700
     95 H58         11.9320     1.7900     0.3070 hc         1 ONX       0.036700
     96 H59         13.7150     0.3980     1.4020 hc         1 ONX       0.036700
     97 H60         13.7600    -0.6560    -0.0120 hc         1 ONX       0.036700
     98 H61         14.4710     1.2880    -1.4370 hc         1 ONX       0.036700
     99 H62         14.4270     2.3410    -0.0220 hc         1 ONX       0.036700
    100 H63         16.2090     0.9460     1.0700 hc         1 ONX       0.036700
    101 H64         16.2540    -0.1050    -0.3450 hc         1 ONX       0.036700
    102 H65         16.9670     1.8400    -1.7670 hc         1 ONX       0.036700
    103 H66         16.9220     2.8910    -0.3520 hc         1 ONX       0.036700
    104 H67         18.7030     1.4950     0.7410 hc         1 ONX       0.036700
    105 H68         18.7490     0.4460    -0.6750 hc         1 ONX       0.036700
    106 H69         19.4620     2.3930    -2.0950 hc         1 ONX       0.036700
    107 H70         19.4160     3.4420    -0.6780 hc         1 ONX       0.036700
    108 H71         21.1990     2.0470     0.4130 hc         1 ONX       0.036700
    109 H72         21.2450     0.9970    -1.0040 hc         1 ONX       0.036700
    110 H73         21.9620     2.9460    -2.4230 hc         1 ONX       0.036700
    111 H74         21.9150     3.9950    -1.0060 hc         1 ONX       0.036700
    112 H75         24.2490     3.2730    -1.4920 hc         1 ONX       0.031367
    113 H76         23.7280     2.6240     0.0790 hc         1 ONX       0.031367
    114 H77         23.7750     1.5660    -1.3510 hc         1 ONX       0.031367
    115 C17        -20.9210     4.5960     1.5510 c3         1 ONX      -0.074400
    116 C18        -22.3730     4.7540     1.0610 c3         1 ONX      -0.088100
    117 H28        -20.9260     4.0720     2.5150 hc         1 ONX       0.036700
    118 H34        -20.4950     5.5910     1.7300 hc         1 ONX       0.036700
    119 H54        -22.4050     5.3070     0.1140 hc         1 ONX       0.031367
    120 H78        -22.8390     3.7730     0.9050 hc         1 ONX       0.031367
    121 H79        -22.9680     5.3030     1.8000 hc         1 ONX       0.031367
    122 CAE         -0.3250    -1.9670     1.7220 c          1 ONX       0.599100
@<TRIPOS>BOND
     1     1     3 1   
     2     1    19 1   
     3     1    25 1   
     4     1    26 1   
     5     2     4 1   
     6     2    21 1   
     7     2    27 1   
     8     2    28 1   
     9     3     5 1   
    10     3    29 1   
    11     3    30 1   
    12     4     6 1   
    13     4    31 1   
    14     4    32 1   
    15     5     7 1   
    16     5    33 1   
    17     5    34 1   
    18     6     8 1   
    19     6    35 1   
    20     6    36 1   
    21     7     9 1   
    22     7    37 1   
    23     7    38 1   
    24     8    10 1   
    25     8    39 1   
    26     8    40 1   
    27     9    11 1   
    28     9    41 1   
    29     9    42 1   
    30    10    12 1   
    31    10    43 1   
    32    10    44 1   
    33    11    13 1   
    34    11    45 1   
    35    11    46 1   
    36    12    20 1   
    37    12    47 1   
    38    12    48 1   
    39    13    18 1   
    40    13    49 1   
    41    13    50 1   
    42    14    18 2   
    43    14    23 1   
    44    14    51 1   
    45    15   122 2   
    46    16    17 1   
    47    16    22 1   
    48    16    23 1   
    49    16    52 1   
    50    17    53 1   
    51    17    54 1   
    52    17    55 1   
    53    18    56 1   
    54    19    57 1   
    55    19    58 1   
    56    19    66 1   
    57    20    59 1   
    58    20    60 1   
    59    20   122 1   
    60    21    61 1   
    61    21    62 1   
    62    21    71 1   
    63    22    63 1   
    64    22   122 1   
    65    23    24 1   
    66    23    64 1   
    67    24    65 1   
    68    66    67 1   
    69    66    82 1   
    70    66    83 1   
    71    67    68 1   
    72    67    84 1   
    73    67    85 1   
    74    68    69 1   
    75    68    86 1   
    76    68    87 1   
    77    69    70 1   
    78    69    88 1   
    79    69    89 1   
    80    70    90 1   
    81    70    91 1   
    82    70   115 1   
    83    71    72 1   
    84    71    92 1   
    85    71    93 1   
    86    72    73 1   
    87    72    94 1   
    88    72    95 1   
    89    73    74 1   
    90    73    96 1   
    91    73    97 1   
    92    74    75 1   
    93    74    98 1   
    94    74    99 1   
    95    75    76 1   
    96    75   100 1   
    97    75   101 1   
    98    76    77 1   
    99    76   102 1   
   100    76   103 1   
   101    77    78 1   
   102    77   104 1   
   103    77   105 1   
   104    78    79 1   
   105    78   106 1   
   106    78   107 1   
   107    79    80 1   
   108    79   108 1   
   109    79   109 1   
   110    80    81 1   
   111    80   110 1   
   112    80   111 1   
   113    81   112 1   
   114    81   113 1   
   115    81   114 1   
   116   115   116 1   
   117   115   117 1   
   118   115   118 1   
   119   116   119 1   
   120   116   120 1   
   121   116   121 1   
@<TRIPOS>SUBSTRUCTURE
     1 ONX         1 TEMP              0 ****  ****    0 ROOT
