@<TRIPOS>MOLECULE
ONY
   51    53     1     0     0
SMALL
No Charge or Current Charge


@<TRIPOS>ATOM
      1 C01         22.3630    -1.8630     1.9650 c3         1 ONY       0.085300
      2 C03         21.7090    -2.4600    -0.3870 c3         1 ONY       0.107000
      3 C04         22.7060    -3.4190    -1.0630 c3         1 ONY      -0.135700
      4 C05         22.8780    -3.1270    -2.5230 cc         1 ONY       0.552300
      5 C08         23.6410    -2.2570    -4.2330 cd         1 ONY       0.494300
      6 C10         24.4150    -1.4370    -5.2190 c3         1 ONY      -0.134400
      7 C11         20.4540    -3.4390     1.5970 c          1 ONY       0.597100
      8 C13         19.7400    -4.5070     0.7410 c3         1 ONY      -0.113100
      9 C14         20.0730    -5.9190     1.2220 ca         1 ONY      -0.063300
     10 C15         19.0380    -6.8380     1.4930 ca         1 ONY      -0.084500
     11 C16         19.3400    -8.1400     1.9290 ca         1 ONY      -0.112500
     12 C17         20.6810    -8.5310     2.1050 ca         1 ONY       0.092100
     13 C18         21.7150    -7.6260     1.8210 ca         1 ONY      -0.112500
     14 C19         21.4140    -6.3240     1.3840 ca         1 ONY      -0.084500
     15 C21         20.2730   -10.4920     3.4600 ca         1 ONY       0.167100
     16 C22         19.7470    -9.8400     4.5880 ca         1 ONY      -0.195000
     17 C23         19.0160   -10.5680     5.5410 ca         1 ONY      -0.031000
     18 C24         18.8140   -11.9540     5.3770 ca         1 ONY      -0.066000
     19 C25         19.3560   -12.6170     4.2470 ca         1 ONY      -0.000300
     20 C26         20.0870   -11.8730     3.2990 ca         1 ONY      -0.155000
     21 C27         19.1680   -14.1170     4.0320 c3         1 ONY      -0.056800
     22 C28         18.0600   -12.6660     6.3750 cg         1 ONY       0.334000
     23 N02         21.5520    -2.7150     1.0650 n          1 ONY      -0.414800
     24 N06         22.1560    -3.7080    -3.4640 nd         1 ONY      -0.372300
     25 N09         23.8100    -2.2210    -2.9300 nc         1 ONY      -0.727000
     26 N29         17.4470   -13.2350     7.1900 n1         1 ONY      -0.468000
     27 O07         22.6690    -3.1200    -4.6420 os         1 ONY      -0.090700
     28 O12         20.1060    -3.2630     2.7590 o          1 ONY      -0.584100
     29 O20         21.0040    -9.8040     2.5180 os         1 ONY      -0.252200
     30 H1          21.7890    -0.9720     2.2500 h1         1 ONY       0.044700
     31 H2          22.6320    -2.4240     2.8700 h1         1 ONY       0.044700
     32 H3          23.2880    -1.5500     1.4630 h1         1 ONY       0.044700
     33 H4          22.0690    -1.4320    -0.5260 h1         1 ONY       0.063200
     34 H5          20.7340    -2.5090    -0.8890 h1         1 ONY       0.063200
     35 H6          22.3650    -4.4530    -0.9400 hc         1 ONY       0.074700
     36 H7          23.6760    -3.3480    -0.5570 hc         1 ONY       0.074700
     37 H8          24.1410    -1.6980    -6.2480 hc         1 ONY       0.075367
     38 H9          24.2170    -0.3700    -5.0750 hc         1 ONY       0.075367
     39 H10         25.4910    -1.6040    -5.1020 hc         1 ONY       0.075367
     40 H11         20.0060    -4.4370    -0.3160 hc         1 ONY       0.068200
     41 H12         18.6620    -4.3340     0.8330 hc         1 ONY       0.068200
     42 H13         17.9980    -6.5460     1.3620 ha         1 ONY       0.117000
     43 H14         18.5320    -8.8410     2.1250 ha         1 ONY       0.130500
     44 H15         22.7510    -7.9320     1.9440 ha         1 ONY       0.130500
     45 H16         22.2270    -5.6330     1.1760 ha         1 ONY       0.117000
     46 H17         19.9050    -8.7740     4.7300 ha         1 ONY       0.140000
     47 H18         18.6080   -10.0540     6.4110 ha         1 ONY       0.126000
     48 H19         20.5120   -12.3640     2.4280 ha         1 ONY       0.132000
     49 H20         19.5990   -14.6920     4.8600 hc         1 ONY       0.052367
     50 H21         18.1050   -14.3760     3.9580 hc         1 ONY       0.052367
     51 H22         19.6520   -14.4610     3.1100 hc         1 ONY       0.052367
@<TRIPOS>BOND
     1     1    23 1   
     2     1    30 1   
     3     1    31 1   
     4     1    32 1   
     5     2     3 1   
     6     2    23 1   
     7     2    33 1   
     8     2    34 1   
     9     3     4 1   
    10     3    35 1   
    11     3    36 1   
    12     4    24 2   
    13     4    25 1   
    14     5     6 1   
    15     5    25 2   
    16     5    27 1   
    17     6    37 1   
    18     6    38 1   
    19     6    39 1   
    20     7     8 1   
    21     7    23 1   
    22     7    28 2   
    23     8     9 1   
    24     8    40 1   
    25     8    41 1   
    26     9    10 ar  
    27     9    14 ar  
    28    10    11 ar  
    29    10    42 1   
    30    11    12 ar  
    31    11    43 1   
    32    12    13 ar  
    33    12    29 1   
    34    13    14 ar  
    35    13    44 1   
    36    14    45 1   
    37    15    16 ar  
    38    15    20 ar  
    39    15    29 1   
    40    16    17 ar  
    41    16    46 1   
    42    17    18 ar  
    43    17    47 1   
    44    18    19 ar  
    45    18    22 1   
    46    19    20 ar  
    47    19    21 1   
    48    20    48 1   
    49    21    49 1   
    50    21    50 1   
    51    21    51 1   
    52    22    26 3   
    53    24    27 1   
@<TRIPOS>SUBSTRUCTURE
     1 ONY         1 TEMP              0 ****  ****    0 ROOT
