@<TRIPOS>MOLECULE
ONY
   51    53     1     0     0
SMALL
bcc


@<TRIPOS>ATOM
      1 C01         21.9480    -2.2080     1.9610 c3         1 ONY       0.085300
      2 C03         21.8250    -2.6740    -0.4680 c3         1 ONY       0.107000
      3 C04         23.3010    -2.8390    -0.8480 c3         1 ONY      -0.135700
      4 C05         23.5600    -2.3810    -2.2360 cc         1 ONY       0.552300
      5 C08         23.6780    -1.1440    -3.9020 cd         1 ONY       0.538700
      6 C10         23.6700    -0.0600    -4.9060 c3         1 ONY      -0.134400
      7 C11         21.1780    -4.3620     1.2130 c          1 ONY       0.664100
      8 C13         20.8340    -5.3050     0.0670 c3         1 ONY      -0.113100
      9 C14         20.5160    -6.6840     0.5600 ca         1 ONY      -0.063300
     10 C15         19.2040    -7.0620     0.8280 ca         1 ONY      -0.102500
     11 C16         18.9060    -8.3370     1.2870 ca         1 ONY      -0.130500
     12 C17         19.9370    -9.2430     1.4790 ca         1 ONY       0.092100
     13 C18         21.2520    -8.8920     1.2200 ca         1 ONY      -0.130500
     14 C19         21.5300    -7.6140     0.7580 ca         1 ONY      -0.102500
     15 C21         19.4750   -10.7860     3.2000 ca         1 ONY       0.167100
     16 C22         19.6520    -9.8370     4.2030 ca         1 ONY      -0.213000
     17 C23         19.4500   -10.2140     5.5170 ca         1 ONY      -0.049000
     18 C24         19.0770   -11.5180     5.8350 ca         1 ONY      -0.066000
     19 C25         18.9000   -12.4810     4.8270 ca         1 ONY      -0.000300
     20 C26         19.1050   -12.0930     3.5150 ca         1 ONY      -0.173000
     21 C27         18.4920   -13.8820     5.1620 c3         1 ONY      -0.056800
     22 C28         18.8730   -11.8730     7.1980 cg         1 ONY       0.244800
     23 N02         21.5620    -3.1070     0.8880 n          1 ONY      -0.481800
     24 N06         24.0030    -3.1650    -3.1680 nd         1 ONY      -0.372300
     25 N09         23.3400    -1.1000    -2.6560 nc         1 ONY      -0.727000
     26 N29         18.7060   -12.1640     8.3020 n1         1 ONY      -0.378800
     27 O07         24.0860    -2.3520    -4.2690 os         1 ONY      -0.135100
     28 O12         21.0900    -4.7230     2.3760 o          1 ONY      -0.584100
     29 O20         19.6500   -10.5280     1.8860 os         1 ONY      -0.252200
     30 H1          21.1840    -2.1700     2.7360 h1         1 ONY       0.044700
     31 H2          22.8920    -2.5000     2.4250 h1         1 ONY       0.044700
     32 H3          22.0660    -1.2070     1.5530 h1         1 ONY       0.044700
     33 H4          21.5360    -1.6260    -0.5550 h1         1 ONY       0.063200
     34 H5          21.1950    -3.2190    -1.1670 h1         1 ONY       0.063200
     35 H6          23.6040    -3.8820    -0.7510 hc         1 ONY       0.074700
     36 H7          23.9220    -2.2560    -0.1640 hc         1 ONY       0.074700
     37 H8          23.0900    -0.3490    -5.7820 hc         1 ONY       0.075367
     38 H9          23.2360     0.8360    -4.4740 hc         1 ONY       0.075367
     39 H10         24.6840     0.1640    -5.2370 hc         1 ONY       0.075367
     40 H11         21.6620    -5.3510    -0.6460 hc         1 ONY       0.068200
     41 H12         19.9840    -4.8970    -0.4860 hc         1 ONY       0.068200
     42 H13         18.3980    -6.3560     0.6730 ha         1 ONY       0.135000
     43 H14         17.8820    -8.6240     1.4850 ha         1 ONY       0.148500
     44 H15         22.0480    -9.6110     1.3680 ha         1 ONY       0.148500
     45 H16         22.5580    -7.3430     0.5480 ha         1 ONY       0.135000
     46 H17         19.9420    -8.8200     3.9780 ha         1 ONY       0.158000
     47 H18         19.5840    -9.4850     6.3050 ha         1 ONY       0.144000
     48 H19         18.9780   -12.8120     2.7160 ha         1 ONY       0.150000
     49 H20         19.1800   -14.3370     5.8750 hc         1 ONY       0.052367
     50 H21         17.4990   -13.9020     5.6140 hc         1 ONY       0.052367
     51 H22         18.4670   -14.5080     4.2730 hc         1 ONY       0.052367
@<TRIPOS>BOND
     1     1    23 1   
     2     1    30 1   
     3     1    31 1   
     4     1    32 1   
     5     2     3 1   
     6     2    23 1   
     7     2    33 1   
     8     2    34 1   
     9     3     4 1   
    10     3    35 1   
    11     3    36 1   
    12     4    24 2   
    13     4    25 1   
    14     5     6 1   
    15     5    25 2   
    16     5    27 1   
    17     6    37 1   
    18     6    38 1   
    19     6    39 1   
    20     7     8 1   
    21     7    23 1   
    22     7    28 2   
    23     8     9 1   
    24     8    40 1   
    25     8    41 1   
    26     9    10 ar  
    27     9    14 ar  
    28    10    11 ar  
    29    10    42 1   
    30    11    12 ar  
    31    11    43 1   
    32    12    13 ar  
    33    12    29 1   
    34    13    14 ar  
    35    13    44 1   
    36    14    45 1   
    37    15    16 ar  
    38    15    20 ar  
    39    15    29 1   
    40    16    17 ar  
    41    16    46 1   
    42    17    18 ar  
    43    17    47 1   
    44    18    19 ar  
    45    18    22 1   
    46    19    20 ar  
    47    19    21 1   
    48    20    48 1   
    49    21    49 1   
    50    21    50 1   
    51    21    51 1   
    52    22    26 3   
    53    24    27 1   
@<TRIPOS>SUBSTRUCTURE
     1 ONY         1 TEMP              0 ****  ****    0 ROOT
