@<TRIPOS>MOLECULE
ONZ
   24    25     1     0     0
SMALL
No Charge or Current Charge


@<TRIPOS>ATOM
      1 C10         -1.6240    -2.4650    -0.0090 ca         1 ONZ      -0.129000
      2 C9          -0.4900    -1.6200    -0.0350 ca         1 ONZ      -0.079000
      3 C11         -2.9170    -1.9210     0.0970 ca         1 ONZ      -0.099000
      4 C8          -0.6250    -0.2040     0.0460 ca         1 ONZ      -0.111600
      5 C12         -3.0370    -0.5310     0.1670 ca         1 ONZ       0.027100
      6 C16         -1.9440     0.2970     0.1430 ca         1 ONZ       0.090100
      7 C6           0.5800     0.7230     0.0260 c          1 ONZ       0.596700
      8 C2           4.3250    -0.1460    -0.1380 c          1 ONZ       0.709000
      9 C14         -3.7760     1.5470     0.2010 c5         1 ONZ       0.368600
     10 C4           3.1190     0.8270    -0.0040 c3         1 ONZ      -0.055000
     11 N5           1.8190     0.1150     0.0150 ns         1 ONZ      -0.453900
     12 O3           4.1590    -1.3280     0.1340 o          1 ONZ      -0.727500
     13 O7           0.4900     1.9440     0.0100 o          1 ONZ      -0.634100
     14 O1           5.3850     0.3080    -0.5450 o          1 ONZ      -0.727500
     15 O13         -4.2070     0.1460     0.2890 os         1 ONZ      -0.355100
     16 O15         -2.3100     1.6030     0.2540 os         1 ONZ      -0.312100
     17 H1          -1.4960    -3.5430    -0.0700 ha         1 ONZ       0.114000
     18 H2           0.4860    -2.0900    -0.1210 ha         1 ONZ       0.140000
     19 H3          -3.7970    -2.5600     0.1230 ha         1 ONZ       0.120000
     20 H4          -4.1120     1.9610    -0.7570 h2         1 ONZ       0.054700
     21 H5          -4.2010     2.1220     1.0310 h2         1 ONZ       0.054700
     22 H6           3.2330     1.3940     0.9290 h1         1 ONZ       0.035700
     23 H7           3.1350     1.5250    -0.8500 h1         1 ONZ       0.035700
     24 H8           1.8410    -0.8970     0.0450 hn         1 ONZ       0.340500
@<TRIPOS>BOND
     1     1     2 ar  
     2     1     3 ar  
     3     1    17 1   
     4     2     4 ar  
     5     2    18 1   
     6     3     5 ar  
     7     3    19 1   
     8     4     6 ar  
     9     4     7 1   
    10     5     6 ar  
    11     5    15 1   
    12     6    16 1   
    13     7    11 1   
    14     7    13 2   
    15     8    10 1   
    16     8    12 1   
    17     8    14 1   
    18     9    15 1   
    19     9    16 1   
    20     9    20 1   
    21     9    21 1   
    22    10    11 1   
    23    10    22 1   
    24    10    23 1   
    25    11    24 1   
@<TRIPOS>SUBSTRUCTURE
     1 ONZ         1 TEMP              0 ****  ****    0 ROOT
