@<TRIPOS>MOLECULE
ONZ
   24    25     1     0     0
SMALL
abcg2


@<TRIPOS>ATOM
      1 C10         -1.6310    -2.4530    -0.3130 ca         1 ONZ      -0.129000
      2 C9          -0.5350    -1.6320    -0.4990 ca         1 ONZ      -0.079000
      3 C11         -2.8620    -1.9340     0.1030 ca         1 ONZ      -0.099000
      4 C8          -0.6040    -0.2370    -0.2890 ca         1 ONZ      -0.111600
      5 C12         -2.9250    -0.5770     0.3010 ca         1 ONZ       0.027100
      6 C16         -1.8310     0.2570     0.1000 ca         1 ONZ       0.090100
      7 C6           0.5650     0.6800    -0.4740 c          1 ONZ       0.596700
      8 C2           4.1260    -0.0970     0.4090 c          1 ONZ       0.709000
      9 C14         -3.5820     1.5120     0.5870 c5         1 ONZ       0.368600
     10 C4           3.0120     0.8510    -0.1250 c3         1 ONZ      -0.055000
     11 N5           1.7450     0.1510    -0.1240 ns         1 ONZ      -0.453900
     12 O3           3.7270    -1.1380     0.9680 o          1 ONZ      -0.727500
     13 O7           0.4410     1.7920    -0.9850 o          1 ONZ      -0.634100
     14 O1           5.3180     0.2330     0.2430 o          1 ONZ      -0.727500
     15 O13         -3.9710     0.1590     0.7460 os         1 ONZ      -0.355100
     16 O15         -2.1760     1.5270     0.4100 os         1 ONZ      -0.312100
     17 H1          -1.5400    -3.5120    -0.4940 ha         1 ONZ       0.114000
     18 H2           0.3930    -2.0720    -0.8400 ha         1 ONZ       0.140000
     19 H3          -3.7170    -2.5730     0.2660 ha         1 ONZ       0.120000
     20 H4          -4.0740     1.9380    -0.2940 h2         1 ONZ       0.054700
     21 H5          -3.8470     2.0840     1.4760 h2         1 ONZ       0.054700
     22 H6           2.9670     1.7440     0.5070 h1         1 ONZ       0.035700
     23 H7           3.2690     1.2040    -1.1310 h1         1 ONZ       0.035700
     24 H8           1.7680    -0.6980     0.4310 hn         1 ONZ       0.340500
@<TRIPOS>BOND
     1     1     2 ar  
     2     1     3 ar  
     3     1    17 1   
     4     2     4 ar  
     5     2    18 1   
     6     3     5 ar  
     7     3    19 1   
     8     4     6 ar  
     9     4     7 1   
    10     5     6 ar  
    11     5    15 1   
    12     6    16 1   
    13     7    11 1   
    14     7    13 2   
    15     8    10 1   
    16     8    12 1   
    17     8    14 1   
    18     9    15 1   
    19     9    16 1   
    20     9    20 1   
    21     9    21 1   
    22    10    11 1   
    23    10    22 1   
    24    10    23 1   
    25    11    24 1   
@<TRIPOS>SUBSTRUCTURE
     1 ONZ         1 TEMP              0 ****  ****    0 ROOT
