@<TRIPOS>MOLECULE
OO1
   19    19     1     0     0
SMALL
abcg2


@<TRIPOS>ATOM
      1 C48         -2.6950    -0.0950    -0.2220 c          1 OO1       0.745000
      2 O49         -2.5540    -1.3290    -0.2780 o          1 OO1      -0.715500
      3 N50         -1.5320     0.7070    -0.1090 ns         1 OO1      -0.188000
      4 C51         -0.1960     0.3630    -0.0580 ca         1 OO1       0.059000
      5 C52          0.3070    -0.9420    -0.1300 ca         1 OO1      -0.204000
      6 C53          1.6770    -1.1710    -0.0690 ca         1 OO1      -0.075000
      7 C54          2.6040    -0.1440     0.0610 ca         1 OO1      -0.187300
      8 C55          4.0830    -0.4060     0.1020 c3         1 OO1      -0.015800
      9 C56          2.0970     1.1530     0.1350 ca         1 OO1      -0.075000
     10 C57          0.7390     1.4030     0.0770 ca         1 OO1      -0.204000
     11 H2          -1.7160     1.6970    -0.0600 hn         1 OO1       0.113000
     12 H3          -0.3710    -1.7730    -0.2270 ha         1 OO1       0.124000
     13 H4           2.0260    -2.1970    -0.1260 ha         1 OO1       0.081500
     14 H5           4.5600    -0.1760    -0.8540 hc         1 OO1       0.017367
     15 H6           4.5780     0.2040     0.8590 hc         1 OO1       0.017367
     16 H7           4.2970    -1.4510     0.3280 hc         1 OO1       0.017367
     17 H8           2.7770     1.9900     0.2410 ha         1 OO1       0.081500
     18 H9           0.3870     2.4280     0.1410 ha         1 OO1       0.124000
     19 O1          -3.7580     0.5540    -0.2520 o          1 OO1      -0.715500
@<TRIPOS>BOND
     1     1     2 1   
     2     1     3 1   
     3     1    19 1   
     4     3     4 1   
     5     3    11 1   
     6     4     5 ar  
     7     4    10 ar  
     8     5     6 ar  
     9     5    12 1   
    10     6     7 ar  
    11     6    13 1   
    12     7     8 1   
    13     7     9 ar  
    14     8    14 1   
    15     8    15 1   
    16     8    16 1   
    17     9    10 ar  
    18     9    17 1   
    19    10    18 1   
@<TRIPOS>SUBSTRUCTURE
     1 OO1         1 TEMP              0 ****  ****    0 ROOT
