@<TRIPOS>MOLECULE
OO1
   19    19     1     0     0
SMALL
No Charge or Current Charge


@<TRIPOS>ATOM
      1 C48         -2.7180    -0.0690    -0.1250 c          1 OO1       0.745000
      2 O49         -2.6660    -1.2720     0.0800 o          1 OO1      -0.715500
      3 N50         -1.5600     0.6930    -0.1690 ns         1 OO1      -0.188000
      4 C51         -0.1810     0.3610    -0.0920 ca         1 OO1       0.059000
      5 C52          0.3230    -0.9500    -0.2420 ca         1 OO1      -0.204000
      6 C53          1.7040    -1.1970    -0.1650 ca         1 OO1      -0.075000
      7 C54          2.6050    -0.1400     0.0570 ca         1 OO1      -0.187300
      8 C55          4.1010    -0.4080     0.1360 c3         1 OO1      -0.015800
      9 C56          2.1100     1.1690     0.1920 ca         1 OO1      -0.075000
     10 C57          0.7290     1.4140     0.1150 ca         1 OO1      -0.204000
     11 H2          -1.7280     1.6830    -0.2910 hn         1 OO1       0.113000
     12 H3          -0.3400    -1.7880    -0.4310 ha         1 OO1       0.124000
     13 H4           2.0750    -2.2130    -0.2840 ha         1 OO1       0.081500
     14 H5           4.5620    -0.3390    -0.8570 hc         1 OO1       0.017367
     15 H6           4.6030     0.3150     0.7900 hc         1 OO1       0.017367
     16 H7           4.3070    -1.4090     0.5330 hc         1 OO1       0.017367
     17 H8           2.7950     1.9990     0.3560 ha         1 OO1       0.081500
     18 H9           0.3620     2.4330     0.2210 ha         1 OO1       0.124000
     19 O1          -3.7730     0.5300    -0.2660 o          1 OO1      -0.715500
@<TRIPOS>BOND
     1     1     2 1   
     2     1     3 1   
     3     1    19 1   
     4     3     4 1   
     5     3    11 1   
     6     4     5 ar  
     7     4    10 ar  
     8     5     6 ar  
     9     5    12 1   
    10     6     7 ar  
    11     6    13 1   
    12     7     8 1   
    13     7     9 ar  
    14     8    14 1   
    15     8    15 1   
    16     8    16 1   
    17     9    10 ar  
    18     9    17 1   
    19    10    18 1   
@<TRIPOS>SUBSTRUCTURE
     1 OO1         1 TEMP              0 ****  ****    0 ROOT
