@<TRIPOS>MOLECULE
OO2
   51    54     1     0     0
SMALL
No Charge or Current Charge


@<TRIPOS>ATOM
      1 C1          23.4310    28.7850    -0.9740 ca         1 OO2       0.256000
      2 C2          24.0040    28.7370     1.2380 ca         1 OO2       0.077500
      3 N1          24.6660    28.4680    -1.4230 nb         1 OO2      -0.317000
      4 N2          23.0450    28.9330     0.3140 nb         1 OO2      -0.217000
      5 C3          25.6110    28.2830    -0.4780 ca         1 OO2       0.443900
      6 O1          19.6100    30.7480     2.8530 oh         1 OO2      -0.708000
      7 C4          20.6880    29.8080     2.6660 c5         1 OO2       0.136300
      8 C5          22.0450    30.4130     3.1450 c5         1 OO2       0.124300
      9 O2          21.8050    31.2430     4.2930 oh         1 OO2      -0.695000
     10 C6          20.6100    28.5600     3.5910 c5         1 OO2       0.127300
     11 C7          19.5420    27.5100     3.1840 c3         1 OO2       0.161600
     12 O3          19.3650    26.5760     4.2730 os         1 OO2      -0.459000
     13 C8          18.2590    25.6400     4.1260 c3         1 OO2      -0.162400
     14 P1          18.3610    24.3700     2.7260 p5         1 OO2       1.275500
     15 O4          18.1100    25.0460     1.4180 o          1 OO2      -0.923167
     16 O5          17.3160    23.3280     2.9550 o          1 OO2      -0.923167
     17 O6          19.7100    23.7290     2.7200 o          1 OO2      -0.923167
     18 O7          21.9390    28.0130     3.4670 os         1 OO2      -0.394000
     19 C9          22.8740    29.1150     3.4880 c5         1 OO2       0.287300
     20 N3          23.9980    28.7980     2.6050 na         1 OO2      -0.315300
     21 C10         25.2930    28.4940     3.0460 cc         1 OO2       0.502700
     22 N4          26.1190    28.2550     2.0050 nd         1 OO2      -0.550100
     23 C11         25.2910    28.4120     0.8910 ca         1 OO2      -0.072600
     24 Cl1         22.1960    29.0380    -2.1960 cl         1 OO2      -0.205000
     25 N5          26.9070    27.9500    -0.8690 nu         1 OO2      -0.917100
     26 C12         27.4420    28.8550    -1.9190 c5         1 OO2       0.251500
     27 C13         27.8240    30.1740    -1.2000 c5         1 OO2      -0.097900
     28 C14         28.8460    30.7810    -2.2060 c5         1 OO2      -0.082900
     29 C15         29.5020    29.5450    -2.9120 c5         1 OO2      -0.082900
     30 C16         28.8550    28.3080    -2.2250 c5         1 OO2      -0.097900
     31 H1          18.8730    30.4780     2.2550 ho         1 OO2       0.505000
     32 H2          20.7540    29.5000     1.6130 h1         1 OO2       0.064700
     33 H3          22.5220    30.9950     2.3430 h1         1 OO2       0.073700
     34 H4          20.8530    31.4940     4.1820 ho         1 OO2       0.491000
     35 H5          20.4390    28.8570     4.6350 h1         1 OO2       0.066700
     36 H6          18.5980    28.0310     2.9760 h1         1 OO2       0.031700
     37 H7          19.8650    27.0020     2.2660 h1         1 OO2       0.031700
     38 H8          17.3180    26.1910     3.9930 h1         1 OO2       0.004700
     39 H9          18.1580    25.0580     5.0510 h1         1 OO2       0.004700
     40 H12         23.2930    29.2150     4.4970 h2         1 OO2       0.075700
     41 H13         25.5620    28.4670     4.0980 h5         1 OO2       0.182800
     42 H14         27.4860    27.7730    -0.0470 hn         1 OO2       0.528000
     43 H15         26.8210    28.9860    -2.8190 h1         1 OO2       0.071700
     44 H16         26.9620    30.8300    -1.0350 hc         1 OO2       0.048950
     45 H17         28.2950    30.0010    -0.2240 hc         1 OO2       0.048950
     46 H18         29.5880    31.4070    -1.6970 hc         1 OO2       0.042200
     47 H19         28.3430    31.4220    -2.9400 hc         1 OO2       0.042200
     48 H20         30.5930    29.5410    -2.8090 hc         1 OO2       0.042200
     49 H21         29.2850    29.5550    -3.9860 hc         1 OO2       0.042200
     50 H22         28.8330    27.4300    -2.8800 hc         1 OO2       0.048950
     51 H23         29.4100    28.0310    -1.3200 hc         1 OO2       0.048950
@<TRIPOS>BOND
     1     1     3 ar  
     2     1     4 ar  
     3     1    24 1   
     4     2     4 ar  
     5     2    20 1   
     6     2    23 ar  
     7     3     5 ar  
     8     5    23 ar  
     9     5    25 1   
    10     6     7 1   
    11     6    31 1   
    12     7     8 1   
    13     7    10 1   
    14     7    32 1   
    15     8     9 1   
    16     8    19 1   
    17     8    33 1   
    18     9    34 1   
    19    10    11 1   
    20    10    18 1   
    21    10    35 1   
    22    11    12 1   
    23    11    36 1   
    24    11    37 1   
    25    12    13 1   
    26    13    14 1   
    27    13    38 1   
    28    13    39 1   
    29    14    15 1   
    30    14    16 1   
    31    14    17 1   
    32    18    19 1   
    33    19    20 1   
    34    19    40 1   
    35    20    21 1   
    36    21    22 2   
    37    21    41 1   
    38    22    23 1   
    39    25    26 1   
    40    25    42 1   
    41    26    27 1   
    42    26    30 1   
    43    26    43 1   
    44    27    28 1   
    45    27    44 1   
    46    27    45 1   
    47    28    29 1   
    48    28    46 1   
    49    28    47 1   
    50    29    30 1   
    51    29    48 1   
    52    29    49 1   
    53    30    50 1   
    54    30    51 1   
@<TRIPOS>SUBSTRUCTURE
     1 OO2         1 TEMP              0 ****  ****    0 ROOT
