@<TRIPOS>MOLECULE
OO2
   51    54     1     0     0
SMALL
abcg2


@<TRIPOS>ATOM
      1 C1          24.3520    31.6950     0.0530 ca         1 OO2       0.256000
      2 C2          23.6140    30.0630     1.2980 ca         1 OO2       0.077500
      3 N1          25.1580    30.9450    -0.6720 nb         1 OO2      -0.317000
      4 N2          23.5560    31.3750     1.0400 nb         1 OO2      -0.217000
      5 C3          25.2180    29.6330    -0.4020 ca         1 OO2       0.443900
      6 O1          18.5770    29.9560     2.2420 oh         1 OO2      -0.708000
      7 C4          19.8940    29.5070     2.3710 c5         1 OO2       0.136300
      8 C5          20.8550    30.6580     2.6410 c5         1 OO2       0.124300
      9 O2          20.2820    31.5080     3.5940 oh         1 OO2      -0.695000
     10 C6          20.1430    28.5800     3.5690 c5         1 OO2       0.127300
     11 C7          19.9860    27.1200     3.2170 c3         1 OO2       0.161600
     12 O3          20.2280    26.3460     4.3530 os         1 OO2      -0.459000
     13 C8          20.3740    24.9510     4.1030 c3         1 OO2      -0.162400
     14 P1          21.9010    24.3970     3.1500 p5         1 OO2       1.275500
     15 O4          21.6630    24.7600     1.6750 o          1 OO2      -0.923167
     16 O5          21.9050    22.8870     3.4180 o          1 OO2      -0.923167
     17 O6          23.0690    25.1610     3.7990 o          1 OO2      -0.923167
     18 O7          21.4850    28.8560     3.9930 os         1 OO2      -0.394000
     19 C9          22.0350    29.9000     3.2640 c5         1 OO2       0.287300
     20 N3          22.9420    29.3530     2.2470 na         1 OO2      -0.315300
     21 C10         23.3830    28.0580     2.1390 cc         1 OO2       0.502700
     22 N4          24.2530    27.8950     1.1830 nd         1 OO2      -0.550100
     23 C11         24.4100    29.1400     0.6430 ca         1 OO2      -0.072600
     24 CL1         24.3560    33.3810    -0.3750 cl         1 OO2      -0.205000
     25 N5          26.0140    28.8420    -1.1160 nu         1 OO2      -0.917100
     26 C12         26.9220    29.2960    -2.1580 c5         1 OO2       0.251500
     27 C13         28.1720    29.9560    -1.5750 c5         1 OO2      -0.097900
     28 C14         29.0050    28.7780    -1.0560 c5         1 OO2      -0.082900
     29 C15         28.6340    27.5790    -1.9610 c5         1 OO2      -0.082900
     30 C16         27.5040    28.0830    -2.8790 c5         1 OO2      -0.097900
     31 H1          18.0560    29.2540     1.8400 ho         1 OO2       0.505000
     32 H2          20.2330    29.0050     1.4530 h1         1 OO2       0.064700
     33 H3          21.1330    31.1920     1.7280 h1         1 OO2       0.073700
     34 H4          20.8570    32.2720     3.7060 ho         1 OO2       0.491000
     35 H5          19.4650    28.8450     4.3890 h1         1 OO2       0.066700
     36 H6          18.9600    26.9690     2.8370 h1         1 OO2       0.031700
     37 H7          20.6630    26.8610     2.3950 h1         1 OO2       0.031700
     38 H8          19.4630    24.5610     3.6170 h1         1 OO2       0.004700
     39 H9          20.4070    24.4940     5.0970 h1         1 OO2       0.004700
     40 H12         22.6280    30.5420     3.9220 h2         1 OO2       0.075700
     41 H13         23.0550    27.2660     2.8030 h5         1 OO2       0.182800
     42 H14         26.0180    27.8640    -0.8680 hn         1 OO2       0.528000
     43 H15         26.3780    29.9590    -2.8330 h1         1 OO2       0.071700
     44 H16         28.6960    30.4710    -2.3840 hc         1 OO2       0.048950
     45 H17         27.9470    30.7000    -0.8100 hc         1 OO2       0.048950
     46 H18         28.7470    28.5640    -0.0180 hc         1 OO2       0.042200
     47 H19         30.0720    28.9970    -1.0740 hc         1 OO2       0.042200
     48 H20         28.3030    26.7300    -1.3620 hc         1 OO2       0.042200
     49 H21         29.4850    27.2300    -2.5460 hc         1 OO2       0.042200
     50 H22         27.9080    28.4190    -3.8350 hc         1 OO2       0.048950
     51 H23         26.7520    27.3230    -3.1000 hc         1 OO2       0.048950
@<TRIPOS>BOND
     1     1     3 ar  
     2     1     4 ar  
     3     1    24 1   
     4     2     4 ar  
     5     2    20 1   
     6     2    23 ar  
     7     3     5 ar  
     8     5    23 ar  
     9     5    25 1   
    10     6     7 1   
    11     6    31 1   
    12     7     8 1   
    13     7    10 1   
    14     7    32 1   
    15     8     9 1   
    16     8    19 1   
    17     8    33 1   
    18     9    34 1   
    19    10    11 1   
    20    10    18 1   
    21    10    35 1   
    22    11    12 1   
    23    11    36 1   
    24    11    37 1   
    25    12    13 1   
    26    13    14 1   
    27    13    38 1   
    28    13    39 1   
    29    14    15 1   
    30    14    16 1   
    31    14    17 1   
    32    18    19 1   
    33    19    20 1   
    34    19    40 1   
    35    20    21 1   
    36    21    22 2   
    37    21    41 1   
    38    22    23 1   
    39    25    26 1   
    40    25    42 1   
    41    26    27 1   
    42    26    30 1   
    43    26    43 1   
    44    27    28 1   
    45    27    44 1   
    46    27    45 1   
    47    28    29 1   
    48    28    46 1   
    49    28    47 1   
    50    29    30 1   
    51    29    48 1   
    52    29    49 1   
    53    30    50 1   
    54    30    51 1   
@<TRIPOS>SUBSTRUCTURE
     1 OO2         1 TEMP              0 ****  ****    0 ROOT
