@<TRIPOS>MOLECULE
OO4
   84    88     1     0     0
SMALL
No Charge or Current Charge


@<TRIPOS>ATOM
      1 C13         22.8650    -3.1370    13.9880 ca         1 OO4      -0.084300
      2 C15         23.9720    -4.6710    15.5300 ca         1 OO4      -0.110500
      3 C17         23.2470    -5.4610    13.3460 ca         1 OO4      -0.110500
      4 C22         23.6090     1.7360    18.6270 c5         1 OO4       0.162300
      5 C24         18.7320    -0.7190    19.5190 ca         1 OO4      -0.101000
      6 C26         18.6850     0.3750    21.6940 ca         1 OO4      -0.111000
      7 C28         18.0880     1.6210    19.6890 ca         1 OO4      -0.101000
      8 C02         19.4290     0.2750    16.5950 c3         1 OO4       0.123700
      9 C04         18.1240     0.5320    17.3840 c3         1 OO4      -0.048100
     10 C05         20.4700     0.0040    14.2120 c3         1 OO4       0.162300
     11 C06         21.0040    -1.4460    14.4440 c3         1 OO4       0.110700
     12 C09         18.3170    -4.2570    14.4530 c3         1 OO4       0.081700
     13 C11         22.3140    -1.7490    13.6760 c3         1 OO4      -0.036100
     14 C14         23.4770    -3.3900    15.2310 ca         1 OO4      -0.096000
     15 C16         23.8570    -5.7070    14.5870 ca         1 OO4      -0.109000
     16 C18         22.7520    -4.1790    13.0470 ca         1 OO4      -0.096000
     17 C23         18.3190     0.4770    18.8980 ca         1 OO4      -0.087300
     18 C25         18.9170    -0.7690    20.9120 ca         1 OO4      -0.111500
     19 C27         18.2680     1.5690    21.0820 ca         1 OO4      -0.111500
     20 C31         17.0420    -3.4430    14.2230 cx         1 OO4      -0.139700
     21 C34         16.8620    -2.6060    12.9750 cx         1 OO4      -0.124400
     22 C35         16.0300    -3.8490    13.1750 cx         1 OO4      -0.124400
     23 C37         24.4440     3.0340    18.4580 c5         1 OO4       0.152600
     24 C39         23.8540     3.0830    20.6920 c5         1 OO4       0.370300
     25 C40         23.4770     1.6430    20.2030 c5         1 OO4      -0.146700
     26 C42         21.5500     2.9390    20.8690 c5         1 OO4       0.151600
     27 C43         22.0030     1.4690    20.7240 c5         1 OO4      -0.098400
     28 N01         20.4770     1.2010    17.0270 ns         1 OO4      -0.501900
     29 N07         19.9740    -2.4470    14.1320 ns         1 OO4      -0.488900
     30 N29         18.0280    -5.3730    15.3720 ns         1 OO4      -0.483900
     31 O10         20.1270     0.1820    12.8280 oh         1 OO4      -0.664000
     32 O20         22.0860    -0.3160    17.6430 o          1 OO4      -0.530000
     33 O21         22.3330     1.9620    17.9590 os         1 OO4      -0.455100
     34 O32         17.4910    -7.3950    16.1040 os         1 OO4      -0.451100
     35 O33         17.4640    -6.9880    13.8400 o          1 OO4      -0.552000
     36 O38         23.9650     3.8910    19.5090 os         1 OO4      -0.459000
     37 O41         22.7180     3.5530    21.4420 os         1 OO4      -0.439000
     38 H151        24.4420    -4.8610    16.4920 ha         1 OO4       0.107500
     39 H171        23.1560    -6.2620    12.6160 ha         1 OO4       0.107500
     40 H221        24.1380     0.8810    18.1820 h1         1 OO4       0.084700
     41 H241        18.9120    -1.6110    18.9240 ha         1 OO4       0.115500
     42 H261        18.8270     0.3360    22.7720 ha         1 OO4       0.113000
     43 H281        17.7690     2.5520    19.2260 ha         1 OO4       0.115500
     44 H021        19.7420    -0.7480    16.8420 h1         1 OO4       0.105700
     45 H032        18.8920     1.3710    14.8100 hc         1 OO4       0.049200
     46 H031        18.3930    -0.3110    14.7830 hc         1 OO4       0.049200
     47 H041        17.7140     1.5050    17.0870 hc         1 OO4       0.051200
     48 H042        17.3770    -0.2150    17.0860 hc         1 OO4       0.051200
     49 H051        21.2740     0.7030    14.4800 h1         1 OO4       0.044700
     50 H061        21.2570    -1.5300    15.5070 h1         1 OO4       0.102700
     51 H091        18.6750    -4.6640    13.4980 h1         1 OO4       0.080700
     52 H111        23.0610    -0.9900    13.9360 hc         1 OO4       0.056700
     53 H112        22.1370    -1.6440    12.5980 hc         1 OO4       0.056700
     54 H141        23.5650    -2.5950    15.9690 ha         1 OO4       0.114500
     55 H161        24.2400    -6.6990    14.8190 ha         1 OO4       0.108000
     56 H181        22.2770    -4.0000    12.0850 ha         1 OO4       0.114500
     57 H251        19.2390    -1.6940    21.3840 ha         1 OO4       0.114500
     58 H271        18.0870     2.4540    21.6860 ha         1 OO4       0.114500
     59 H311        16.6470    -3.0230    15.1460 hc         1 OO4       0.097700
     60 H341        17.6320    -2.6390    12.2070 hc         1 OO4       0.074950
     61 H342        16.3680    -1.6420    13.0790 hc         1 OO4       0.074950
     62 H351        14.9760    -3.7230    13.4130 hc         1 OO4       0.074950
     63 H352        16.2540    -4.7120    12.5520 hc         1 OO4       0.074950
     64 H361        17.0080    -9.2730    16.8890 h1         1 OO4       0.047367
     65 H362        16.1090    -8.8210    15.4240 h1         1 OO4       0.047367
     66 H363        17.8190    -9.3090    15.3090 h1         1 OO4       0.047367
     67 H372        25.5160     2.8440    18.6070 h1         1 OO4       0.060700
     68 H391        24.7790     3.1090    21.2830 h2         1 OO4       0.079700
     69 H401        24.1550     0.8880    20.6160 hc         1 OO4       0.077700
     70 H421        20.6900     3.0590    21.5410 h1         1 OO4       0.053200
     71 H422        21.3200     3.4080    19.9030 h1         1 OO4       0.053200
     72 H431        21.9990     0.9820    21.7060 hc         1 OO4       0.066700
     73 H432        21.3440     0.8700    20.0910 hc         1 OO4       0.066700
     74 H011        20.2810     2.1930    17.0360 hn         1 OO4       0.322500
     75 H071        19.5640    -2.4220    13.2070 hn         1 OO4       0.325500
     76 H291        18.1700    -5.2350    16.3650 hn         1 OO4       0.339500
     77 H101        19.8690     1.1220    12.7130 ho         1 OO4       0.444000
     78 C08         19.4570    -3.3640    15.0230 c          1 OO4       0.576100
     79 C03         19.2190     0.3550    15.0630 c3         1 OO4      -0.123400
     80 C19         21.6830     0.8320    17.5490 c          1 OO4       0.636100
     81 C30         17.6350    -6.6230    14.9920 c          1 OO4       0.641100
     82 O12         19.8440    -3.4330    16.1840 o          1 OO4      -0.593100
     83 H371        24.3000     3.5130    17.4810 h1         1 OO4       0.060700
     84 C36         17.0870    -8.7640    15.9200 c3         1 OO4       0.170900
@<TRIPOS>BOND
     1     1    13 1   
     2     1    14 ar  
     3     1    16 ar  
     4     2    14 ar  
     5     2    15 ar  
     6     2    38 1   
     7     3    15 ar  
     8     3    16 ar  
     9     3    39 1   
    10     4    23 1   
    11     4    25 1   
    12     4    33 1   
    13     4    40 1   
    14     5    17 ar  
    15     5    18 ar  
    16     5    41 1   
    17     6    18 ar  
    18     6    19 ar  
    19     6    42 1   
    20     7    17 ar  
    21     7    19 ar  
    22     7    43 1   
    23     8     9 1   
    24     8    28 1   
    25     8    44 1   
    26     8    79 1   
    27     9    17 1   
    28     9    47 1   
    29     9    48 1   
    30    10    11 1   
    31    10    31 1   
    32    10    49 1   
    33    10    79 1   
    34    11    13 1   
    35    11    29 1   
    36    11    50 1   
    37    12    20 1   
    38    12    30 1   
    39    12    51 1   
    40    12    78 1   
    41    13    52 1   
    42    13    53 1   
    43    14    54 1   
    44    15    55 1   
    45    16    56 1   
    46    18    57 1   
    47    19    58 1   
    48    20    21 1   
    49    20    22 1   
    50    20    59 1   
    51    21    22 1   
    52    21    60 1   
    53    21    61 1   
    54    22    62 1   
    55    22    63 1   
    56    23    36 1   
    57    23    67 1   
    58    23    83 1   
    59    24    25 1   
    60    24    36 1   
    61    24    37 1   
    62    24    68 1   
    63    25    27 1   
    64    25    69 1   
    65    26    27 1   
    66    26    37 1   
    67    26    70 1   
    68    26    71 1   
    69    27    72 1   
    70    27    73 1   
    71    28    74 1   
    72    28    80 1   
    73    29    75 1   
    74    29    78 1   
    75    30    76 1   
    76    30    81 1   
    77    31    77 1   
    78    32    80 2   
    79    33    80 1   
    80    34    81 1   
    81    34    84 1   
    82    35    81 2   
    83    45    79 1   
    84    46    79 1   
    85    64    84 1   
    86    65    84 1   
    87    66    84 1   
    88    78    82 2   
@<TRIPOS>SUBSTRUCTURE
     1 OO4         1 TEMP              0 ****  ****    0 ROOT
