@<TRIPOS>MOLECULE
OO4
   84    88     1     0     0
SMALL
abcg2


@<TRIPOS>ATOM
      1 C13         22.5810    -3.5410    14.3560 ca         1 OO4      -0.084300
      2 C15         23.6560    -4.7310    16.1680 ca         1 OO4      -0.110500
      3 C17         22.5040    -5.9550    14.4550 ca         1 OO4      -0.110500
      4 C22         23.5620     1.1420    18.7830 c5         1 OO4       0.162300
      5 C24         18.1600    -0.2650    18.9980 ca         1 OO4      -0.101000
      6 C26         18.1200     0.8580    21.1270 ca         1 OO4      -0.111000
      7 C28         18.2200     2.1270    19.0840 ca         1 OO4      -0.101000
      8 C02         19.5310     0.4150    16.2370 c3         1 OO4       0.123700
      9 C04         18.2440     1.0030    16.8270 c3         1 OO4      -0.048100
     10 C05         20.6630    -0.2080    13.9970 c3         1 OO4       0.162300
     11 C06         20.9500    -1.6430    14.4380 c3         1 OO4       0.110700
     12 C09         17.9730    -3.9920    14.8480 c3         1 OO4       0.081700
     13 C11         22.1710    -2.2410    13.7240 c3         1 OO4      -0.036100
     14 C14         23.3250    -3.5420    15.5350 ca         1 OO4      -0.096000
     15 C16         23.2430    -5.9450    15.6300 ca         1 OO4      -0.109000
     16 C18         22.1780    -4.7610    13.8240 ca         1 OO4      -0.096000
     17 C23         18.2090     0.9580    18.3290 ca         1 OO4      -0.087300
     18 C25         18.1160    -0.3170    20.3840 ca         1 OO4      -0.111500
     19 C27         18.1700     2.0800    20.4730 ca         1 OO4      -0.111500
     20 C31         16.8370    -3.5130    15.7140 cx         1 OO4      -0.139700
     21 C34         16.1310    -2.2470    15.3430 cx         1 OO4      -0.124400
     22 C35         15.4360    -3.5680    15.1950 cx         1 OO4      -0.124400
     23 C37         24.7200     2.1000    18.5720 c5         1 OO4       0.152600
     24 C39         23.8530     2.7690    20.5690 c5         1 OO4       0.370300
     25 C40         23.2270     1.3840    20.2640 c5         1 OO4      -0.146700
     26 C42         21.5890     3.0910    20.5590 c5         1 OO4       0.151600
     27 C43         21.7630     1.5830    20.6570 c5         1 OO4      -0.098400
     28 N01         20.6920     1.1360    16.7180 ns         1 OO4      -0.501900
     29 N07         19.7840    -2.4820    14.2690 ns         1 OO4      -0.488900
     30 N29         18.1740    -5.4120    15.0150 ns         1 OO4      -0.483900
     31 O10         20.4530    -0.2320    12.6000 oh         1 OO4      -0.664000
     32 O20         21.6710    -0.5600    17.8840 o          1 OO4      -0.530000
     33 O21         22.5120     1.5320    17.9030 os         1 OO4      -0.455100
     34 O32         18.8530    -7.4380    14.4530 os         1 OO4      -0.451100
     35 O33         18.8960    -5.8120    12.8960 o          1 OO4      -0.552000
     36 O38         24.4180     3.2280    19.3630 os         1 OO4      -0.459000
     37 O41         22.8410     3.6170    20.9860 os         1 OO4      -0.439000
     38 H151        24.2350    -4.7120    17.0830 ha         1 OO4       0.107500
     39 H171        22.1850    -6.8960    14.0250 ha         1 OO4       0.107500
     40 H221        23.8510     0.1100    18.5880 h1         1 OO4       0.084700
     41 H241        18.1500    -1.1880    18.4290 ha         1 OO4       0.115500
     42 H261        18.0820     0.8190    22.2080 ha         1 OO4       0.113000
     43 H281        18.2570     3.0860    18.5820 ha         1 OO4       0.115500
     44 H021        19.6240    -0.6100    16.5950 h1         1 OO4       0.105700
     45 H032        19.3560     1.4500    14.3640 hc         1 OO4       0.049200
     46 H031        18.5540    -0.1070    14.4070 hc         1 OO4       0.049200
     47 H041        18.1250     2.0340    16.4800 hc         1 OO4       0.051200
     48 H042        17.4010     0.4380    16.4200 hc         1 OO4       0.051200
     49 H051        21.5620     0.3760    14.2420 h1         1 OO4       0.044700
     50 H061        21.1760    -1.6190    15.5040 h1         1 OO4       0.102700
     51 H091        17.7200    -3.8090    13.8010 h1         1 OO4       0.080700
     52 H111        22.9910    -1.5210    13.7900 hc         1 OO4       0.056700
     53 H112        21.9540    -2.3850    12.6640 hc         1 OO4       0.056700
     54 H141        23.6430    -2.5990    15.9660 ha         1 OO4       0.114500
     55 H161        23.4980    -6.8740    16.1220 ha         1 OO4       0.108000
     56 H181        21.5990    -4.7800    12.9080 ha         1 OO4       0.114500
     57 H251        18.0750    -1.2750    20.8850 ha         1 OO4       0.114500
     58 H271        18.1710     3.0010    21.0420 ha         1 OO4       0.114500
     59 H311        16.9720    -3.6960    16.7750 hc         1 OO4       0.097700
     60 H341        16.4470    -1.7390    14.4390 hc         1 OO4       0.074950
     61 H342        15.8220    -1.5830    16.1390 hc         1 OO4       0.074950
     62 H351        14.6470    -3.8130    15.8950 hc         1 OO4       0.074950
     63 H352        15.2770    -3.9470    14.1930 hc         1 OO4       0.074950
     64 H361        19.4270    -9.3200    14.0290 h1         1 OO4       0.047367
     65 H362        18.6260    -8.5050    12.6730 h1         1 OO4       0.047367
     66 H363        20.3000    -8.0930    13.0950 h1         1 OO4       0.047367
     67 H372        25.6480     1.6150    18.9000 h1         1 OO4       0.060700
     68 H391        24.6190     2.7450    21.3530 h2         1 OO4       0.079700
     69 H401        23.6980     0.6000    20.8570 hc         1 OO4       0.077700
     70 H421        20.8130     3.4810    21.2180 h1         1 OO4       0.053200
     71 H422        21.3530     3.4050    19.5370 h1         1 OO4       0.053200
     72 H431        21.6230     1.2610    21.6910 hc         1 OO4       0.066700
     73 H432        21.0410     1.0310    20.0580 hc         1 OO4       0.066700
     74 H011        20.7450     2.1240    16.5170 hn         1 OO4       0.322500
     75 H071        19.3690    -2.5150    13.3500 hn         1 OO4       0.325500
     76 H291        18.1050    -5.7940    15.9460 hn         1 OO4       0.339500
     77 H101        20.2670     0.6630    12.2990 ho         1 OO4       0.444000
     78 C08         19.2380    -3.2280    15.2400 c          1 OO4       0.576100
     79 C03         19.4650     0.4150    14.7110 c3         1 OO4      -0.123400
     80 C19         21.6190     0.6020    17.5310 c          1 OO4       0.636100
     81 C30         18.6670    -6.1860    14.0280 c          1 OO4       0.641100
     82 O12         19.6700    -3.3020    16.3820 o          1 OO4      -0.593100
     83 H371        24.8480     2.4080    17.5340 h1         1 OO4       0.060700
     84 C36         19.3280    -8.3780    13.4970 c3         1 OO4       0.170900
@<TRIPOS>BOND
     1     1    13 1   
     2     1    14 ar  
     3     1    16 ar  
     4     2    14 ar  
     5     2    15 ar  
     6     2    38 1   
     7     3    15 ar  
     8     3    16 ar  
     9     3    39 1   
    10     4    23 1   
    11     4    25 1   
    12     4    33 1   
    13     4    40 1   
    14     5    17 ar  
    15     5    18 ar  
    16     5    41 1   
    17     6    18 ar  
    18     6    19 ar  
    19     6    42 1   
    20     7    17 ar  
    21     7    19 ar  
    22     7    43 1   
    23     8     9 1   
    24     8    28 1   
    25     8    44 1   
    26     8    79 1   
    27     9    17 1   
    28     9    47 1   
    29     9    48 1   
    30    10    11 1   
    31    10    31 1   
    32    10    49 1   
    33    10    79 1   
    34    11    13 1   
    35    11    29 1   
    36    11    50 1   
    37    12    20 1   
    38    12    30 1   
    39    12    51 1   
    40    12    78 1   
    41    13    52 1   
    42    13    53 1   
    43    14    54 1   
    44    15    55 1   
    45    16    56 1   
    46    18    57 1   
    47    19    58 1   
    48    20    21 1   
    49    20    22 1   
    50    20    59 1   
    51    21    22 1   
    52    21    60 1   
    53    21    61 1   
    54    22    62 1   
    55    22    63 1   
    56    23    36 1   
    57    23    67 1   
    58    23    83 1   
    59    24    25 1   
    60    24    36 1   
    61    24    37 1   
    62    24    68 1   
    63    25    27 1   
    64    25    69 1   
    65    26    27 1   
    66    26    37 1   
    67    26    70 1   
    68    26    71 1   
    69    27    72 1   
    70    27    73 1   
    71    28    74 1   
    72    28    80 1   
    73    29    75 1   
    74    29    78 1   
    75    30    76 1   
    76    30    81 1   
    77    31    77 1   
    78    32    80 2   
    79    33    80 1   
    80    34    81 1   
    81    34    84 1   
    82    35    81 2   
    83    45    79 1   
    84    46    79 1   
    85    64    84 1   
    86    65    84 1   
    87    66    84 1   
    88    78    82 2   
@<TRIPOS>SUBSTRUCTURE
     1 OO4         1 TEMP              0 ****  ****    0 ROOT
