@<TRIPOS>MOLECULE
OO6
   42    45     1     0     0
SMALL
No Charge or Current Charge


@<TRIPOS>ATOM
      1 N1           7.4410     1.9180    17.8270 nb         1 OO6      -0.643000
      2 C4          14.3000     0.0180    22.9750 ca         1 OO6      -0.135000
      3 C5          14.6170    -1.0290    22.0910 ca         1 OO6      -0.060000
      4 C6          13.5920    -1.6930    21.3980 ca         1 OO6       0.089000
      5 C7          12.2510    -1.3170    21.5880 ca         1 OO6      -0.059000
      6 C8          11.9270    -0.2670    22.4710 ca         1 OO6      -0.149300
      7 C10          9.8880     0.8570    21.4290 c          1 OO6       0.602100
      8 C13          6.1140     1.6800    17.9170 ca         1 OO6       0.346900
      9 C15          4.1290     0.8370    19.0660 ca         1 OO6      -0.077000
     10 C17          4.3450    -0.1700    21.2700 ca         1 OO6      -0.088000
     11 O1          10.5750     1.6100    20.7500 o          1 OO6      -0.566100
     12 C9          10.4590     0.1340    22.6800 c6         1 OO6      -0.080400
     13 C3          12.9630     0.4070    23.1610 ca         1 OO6       0.165100
     14 O           12.6930     1.4260    24.0520 os         1 OO6      -0.343100
     15 C2          11.3790     2.0260    24.0770 c6         1 OO6       0.159600
     16 C1          10.2780     0.9420    24.0000 c6         1 OO6      -0.089700
     17 C            8.8540     1.5400    24.1910 c3         1 OO6      -0.091100
     18 C11          7.7240     0.9200    20.0400 ca         1 OO6      -0.078000
     19 C19          6.3320     0.6700    20.1190 ca         1 OO6      -0.030000
     20 C18          5.7330     0.0520    21.2410 ca         1 OO6      -0.113000
     21 C16          3.5440     0.2210    20.1850 ca         1 OO6      -0.111000
     22 C14          5.5190     1.0620    19.0330 ca         1 OO6      -0.086000
     23 C12          8.2220     1.5440    18.8670 ca         1 OO6       0.326900
     24 H1          15.0900     0.5320    23.5170 ha         1 OO6       0.135000
     25 H2          15.6520    -1.3260    21.9450 ha         1 OO6       0.133000
     26 H3          11.4670    -1.8440    21.0490 ha         1 OO6       0.125000
     27 H4           5.5110     1.9920    17.0650 h4         1 OO6       0.022100
     28 H5           3.5020     1.1380    18.2290 ha         1 OO6       0.120000
     29 H6           3.8900    -0.6460    22.1360 ha         1 OO6       0.115000
     30 H7           9.8440    -0.7650    22.8220 hc         1 OO6       0.064700
     31 H8          11.2880     2.7170    23.2270 h1         1 OO6       0.071200
     32 H9          11.2770     2.6130    25.0010 h1         1 OO6       0.071200
     33 H10         10.4300     0.2550    24.8450 hc         1 OO6       0.067700
     34 H11          8.7560     2.0060    25.1790 hc         1 OO6       0.043700
     35 H12          8.6290     2.3120    23.4440 hc         1 OO6       0.043700
     36 H13          8.0830     0.7640    24.1190 hc         1 OO6       0.043700
     37 H15          6.3240    -0.2590    22.0980 ha         1 OO6       0.108000
     38 H16          2.4700     0.0470    20.2110 ha         1 OO6       0.119000
     39 H17          9.2830     1.7410    18.7310 h4         1 OO6       0.043100
     40 N            8.5740     0.5280    21.1170 ns         1 OO6      -0.155000
     41 Cl          13.9860    -3.0030    20.2930 cl         1 OO6      -0.212000
     42 H14          8.1390    -0.1060    21.7740 hn         1 OO6       0.152000
@<TRIPOS>BOND
     1     1     8 ar  
     2     1    23 ar  
     3     2     3 ar  
     4     2    13 ar  
     5     2    24 1   
     6     3     4 ar  
     7     3    25 1   
     8     4     5 ar  
     9     4    41 1   
    10     5     6 ar  
    11     5    26 1   
    12     6    12 1   
    13     6    13 ar  
    14     7    11 2   
    15     7    12 1   
    16     7    40 1   
    17     8    22 ar  
    18     8    27 1   
    19     9    21 ar  
    20     9    22 ar  
    21     9    28 1   
    22    10    20 ar  
    23    10    21 ar  
    24    10    29 1   
    25    12    16 1   
    26    12    30 1   
    27    13    14 1   
    28    14    15 1   
    29    15    16 1   
    30    15    31 1   
    31    15    32 1   
    32    16    17 1   
    33    16    33 1   
    34    17    34 1   
    35    17    35 1   
    36    17    36 1   
    37    18    19 ar  
    38    18    23 ar  
    39    18    40 1   
    40    19    20 ar  
    41    19    22 ar  
    42    20    37 1   
    43    21    38 1   
    44    23    39 1   
    45    40    42 1   
@<TRIPOS>SUBSTRUCTURE
     1 OO6         1 TEMP              0 ****  ****    0 ROOT
