@<TRIPOS>MOLECULE
OO6
   42    45     1     0     0
SMALL
abcg2


@<TRIPOS>ATOM
      1 N1           7.5900     1.5360    17.7730 nb         1 OO6      -0.643000
      2 C4          14.2060     0.3340    22.8810 ca         1 OO6      -0.135000
      3 C5          14.6430    -0.6840    22.0500 ca         1 OO6      -0.060000
      4 C6          13.7020    -1.4900    21.4190 ca         1 OO6       0.089000
      5 C7          12.3470    -1.2880    21.6140 ca         1 OO6      -0.059000
      6 C8          11.8980    -0.2650    22.4490 ca         1 OO6      -0.149300
      7 C10          9.8140     0.6520    21.4390 c          1 OO6       0.602100
      8 C13          6.2850     1.5500    17.9160 ca         1 OO6       0.346900
      9 C15          4.2110     1.1500    19.2030 ca         1 OO6      -0.077000
     10 C17          4.3830     0.2930    21.4490 ca         1 OO6      -0.088000
     11 O1          10.3360     1.6300    20.9200 o          1 OO6      -0.566100
     12 C9          10.4190    -0.0470    22.6570 c6         1 OO6      -0.080400
     13 C3          12.8410     0.5510    23.0810 ca         1 OO6       0.165100
     14 O           12.5070     1.5570    23.9330 os         1 OO6      -0.343100
     15 C2          11.1260     1.9550    23.9840 c6         1 OO6       0.159600
     16 C1          10.1800     0.7680    23.9500 c6         1 OO6      -0.089700
     17 C            8.7350     1.2200    24.1350 c3         1 OO6      -0.091100
     18 C11          7.8160     0.6150    19.9840 ca         1 OO6      -0.078000
     19 C19          6.4060     0.6400    20.1730 ca         1 OO6      -0.030000
     20 C18          5.7520     0.2420    21.3630 ca         1 OO6      -0.113000
     21 C16          3.6030     0.7420    20.3620 ca         1 OO6      -0.111000
     22 C14          5.6190     1.1130    19.0850 ca         1 OO6      -0.086000
     23 C12          8.3440     1.0640    18.7960 ca         1 OO6       0.326900
     24 H1          14.9180     0.9750    23.3840 ha         1 OO6       0.135000
     25 H2          15.7000    -0.8480    21.8940 ha         1 OO6       0.133000
     26 H3          11.6250    -1.9260    21.1210 ha         1 OO6       0.125000
     27 H4           5.6940     1.9200    17.0820 h4         1 OO6       0.022100
     28 H5           3.6260     1.5080    18.3640 ha         1 OO6       0.120000
     29 H6           3.8930    -0.0090    22.3660 ha         1 OO6       0.115000
     30 H7           9.9370    -1.0200    22.7760 hc         1 OO6       0.064700
     31 H8          10.9250     2.6310    23.1490 h1         1 OO6       0.071200
     32 H9          11.0230     2.5040    24.9190 h1         1 OO6       0.071200
     33 H10         10.4500     0.1070    24.7780 hc         1 OO6       0.067700
     34 H11          8.6110     1.6980    25.1080 hc         1 OO6       0.043700
     35 H12          8.4380     1.9390    23.3670 hc         1 OO6       0.043700
     36 H13          8.0510     0.3710    24.0820 hc         1 OO6       0.043700
     37 H15          6.3290    -0.0890    22.2150 ha         1 OO6       0.108000
     38 H16          2.5240     0.7700    20.4530 ha         1 OO6       0.119000
     39 H17          9.4130     1.0490    18.6390 h4         1 OO6       0.043100
     40 N            8.6390     0.1110    21.0100 ns         1 OO6      -0.155000
     41 CL          14.2410    -2.7850    20.3640 cl         1 OO6      -0.212000
     42 H14          8.2760    -0.6620    21.5440 hn         1 OO6       0.152000
@<TRIPOS>BOND
     1     1     8 ar  
     2     1    23 ar  
     3     2     3 ar  
     4     2    13 ar  
     5     2    24 1   
     6     3     4 ar  
     7     3    25 1   
     8     4     5 ar  
     9     4    41 1   
    10     5     6 ar  
    11     5    26 1   
    12     6    12 1   
    13     6    13 ar  
    14     7    11 2   
    15     7    12 1   
    16     7    40 1   
    17     8    22 ar  
    18     8    27 1   
    19     9    21 ar  
    20     9    22 ar  
    21     9    28 1   
    22    10    20 ar  
    23    10    21 ar  
    24    10    29 1   
    25    12    16 1   
    26    12    30 1   
    27    13    14 1   
    28    14    15 1   
    29    15    16 1   
    30    15    31 1   
    31    15    32 1   
    32    16    17 1   
    33    16    33 1   
    34    17    34 1   
    35    17    35 1   
    36    17    36 1   
    37    18    19 ar  
    38    18    23 ar  
    39    18    40 1   
    40    19    20 ar  
    41    19    22 ar  
    42    20    37 1   
    43    21    38 1   
    44    23    39 1   
    45    40    42 1   
@<TRIPOS>SUBSTRUCTURE
     1 OO6         1 TEMP              0 ****  ****    0 ROOT
