@<TRIPOS>MOLECULE
OO7
   57    60     1     0     0
SMALL
No Charge or Current Charge


@<TRIPOS>ATOM
      1 C2          15.2270   -20.6510   -23.2060 c3         1 OO7       0.512000
      2 C6          17.2570   -22.1020   -23.0360 ca         1 OO7       0.107100
      3 C7          17.5320   -21.7480   -21.6940 ca         1 OO7      -0.101000
      4 C8          18.6360   -22.3030   -21.0260 ca         1 OO7      -0.094000
      5 C12         21.3510   -24.8150   -18.8550 c3         1 OO7       0.143900
      6 C17         17.2020   -25.8300   -25.1990 c          1 OO7       0.654100
      7 C21         16.8000   -28.8570   -24.1800 cc         1 OO7       0.141400
      8 N22         16.4750   -30.1910   -24.3200 nc         1 OO7      -0.269600
      9 C23         15.4820   -30.1980   -25.2000 cd         1 OO7      -0.129000
     10 C24         14.7740   -31.2970   -25.7660 cd         1 OO7       0.420300
     11 C27         13.6110   -29.7660   -27.0890 cc         1 OO7       0.296900
     12 C30         17.8020   -28.3780   -23.2210 ca         1 OO7      -0.011800
     13 C31         19.0100   -29.0860   -23.0510 ca         1 OO7      -0.084500
     14 C32         19.9530   -28.6690   -22.0950 ca         1 OO7      -0.116000
     15 C33         19.6860   -27.5550   -21.2830 ca         1 OO7      -0.112000
     16 C34         18.4710   -26.8650   -21.4190 ca         1 OO7      -0.116000
     17 C35         17.5280   -27.2820   -22.3730 ca         1 OO7      -0.084500
     18 F1          14.5660   -21.1560   -22.1380 f          1 OO7      -0.111333
     19 F3          14.2950   -20.3390   -24.1320 f          1 OO7      -0.111333
     20 F4          15.8080   -19.4890   -22.8270 f          1 OO7      -0.111333
     21 O5          16.1830   -21.5860   -23.7440 os         1 OO7      -0.400100
     22 C9          19.4750   -23.2260   -21.6750 ca         1 OO7      -0.067300
     23 C10         20.6840   -23.8130   -20.9520 c3         1 OO7       0.199900
     24 O11         20.2780   -24.3030   -19.6620 os         1 OO7      -0.453000
     25 C13         19.2020   -23.5800   -23.0100 ca         1 OO7      -0.066000
     26 C14         18.1060   -23.0190   -23.6950 ca         1 OO7      -0.085300
     27 N16         16.8730   -24.5030   -25.2350 ns         1 OO7      -0.527900
     28 O18         18.3530   -26.2310   -25.1790 o          1 OO7      -0.589100
     29 N19         16.0960   -26.6460   -25.2060 ns         1 OO7      -0.437100
     30 C20         16.0430   -28.0250   -24.9970 cd         1 OO7      -0.032500
     31 N26         13.8320   -31.0850   -26.6870 nc         1 OO7      -0.666000
     32 C28         14.2790   -28.6530   -26.5800 cd         1 OO7      -0.154000
     33 N29         15.1650   -28.9280   -25.5490 na         1 OO7       0.153100
     34 H1          16.9090   -21.0450   -21.1520 ha         1 OO7       0.136000
     35 H2          18.8390   -22.0160   -19.9960 ha         1 OO7       0.120000
     36 H3          20.9630   -25.1880   -17.8980 h1         1 OO7       0.030367
     37 H4          21.8620   -25.6430   -19.3630 h1         1 OO7       0.030367
     38 H5          22.0880   -24.0300   -18.6430 h1         1 OO7       0.030367
     39 H6          18.7880   -23.7230   -25.6220 h1         1 OO7       0.069200
     40 H7          17.4690   -22.5530   -25.7080 h1         1 OO7       0.069200
     41 H8          12.8650   -29.6640   -27.8660 h4         1 OO7       0.035100
     42 H9          19.2230   -29.9540   -23.6700 ha         1 OO7       0.117500
     43 H10         20.8890   -29.2130   -21.9820 ha         1 OO7       0.113000
     44 H11         20.4140   -27.2340   -20.5420 ha         1 OO7       0.108000
     45 H12         18.2560   -26.0110   -20.7800 ha         1 OO7       0.113000
     46 H13         16.5810   -26.7540   -22.4530 ha         1 OO7       0.117500
     47 H14         21.1170   -24.6260   -21.5510 h1         1 OO7       0.036700
     48 H15         21.4470   -23.0300   -20.8450 h1         1 OO7       0.036700
     49 H16         19.8470   -24.2930   -23.5200 ha         1 OO7       0.127000
     50 H17         15.8920   -24.2590   -25.2270 hn         1 OO7       0.315500
     51 H18         15.2410   -26.1680   -25.4580 hn         1 OO7       0.321500
     52 H19         14.3350   -33.4200   -25.8420 hc         1 OO7       0.063367
     53 H20         16.0570   -33.0210   -25.7110 hc         1 OO7       0.063367
     54 H21         14.9980   -32.8550   -24.3000 hc         1 OO7       0.063367
     55 H22         14.1330   -27.6320   -26.9020 h4         1 OO7       0.156000
     56 C15         17.8480   -23.4160   -25.1450 c3         1 OO7       0.170300
     57 C25         15.0520   -32.7260   -25.3870 c3         1 OO7      -0.143400
@<TRIPOS>BOND
     1     1    18 1   
     2     1    19 1   
     3     1    20 1   
     4     1    21 1   
     5     2     3 ar  
     6     2    21 1   
     7     2    26 ar  
     8     3     4 ar  
     9     3    34 1   
    10     4    22 ar  
    11     4    35 1   
    12     5    24 1   
    13     5    36 1   
    14     5    37 1   
    15     5    38 1   
    16     6    27 1   
    17     6    28 2   
    18     6    29 1   
    19     7     8 1   
    20     7    12 1   
    21     7    30 2   
    22     8     9 2   
    23     9    10 1   
    24     9    33 1   
    25    10    31 2   
    26    10    57 1   
    27    11    31 1   
    28    11    32 2   
    29    11    41 1   
    30    12    13 ar  
    31    12    17 ar  
    32    13    14 ar  
    33    13    42 1   
    34    14    15 ar  
    35    14    43 1   
    36    15    16 ar  
    37    15    44 1   
    38    16    17 ar  
    39    16    45 1   
    40    17    46 1   
    41    22    23 1   
    42    22    25 ar  
    43    23    24 1   
    44    23    47 1   
    45    23    48 1   
    46    25    26 ar  
    47    25    49 1   
    48    26    56 1   
    49    27    50 1   
    50    27    56 1   
    51    29    30 1   
    52    29    51 1   
    53    30    33 1   
    54    32    33 1   
    55    32    55 1   
    56    39    56 1   
    57    40    56 1   
    58    52    57 1   
    59    53    57 1   
    60    54    57 1   
@<TRIPOS>SUBSTRUCTURE
     1 OO7         1 TEMP              0 ****  ****    0 ROOT
