@<TRIPOS>MOLECULE
OO7
   57    60     1     0     0
SMALL
abcg2


@<TRIPOS>ATOM
      1 C2          16.6920   -20.3840   -25.0350 c3         1 OO7       0.512000
      2 C6          17.8570   -22.1830   -24.0850 ca         1 OO7       0.107100
      3 C7          19.1900   -21.8810   -23.8690 ca         1 OO7      -0.101000
      4 C8          19.8550   -22.4790   -22.8120 ca         1 OO7      -0.094000
      5 C12         19.7930   -24.6400   -18.6080 c3         1 OO7       0.143900
      6 C17         15.8030   -25.8190   -23.9680 c          1 OO7       0.654100
      7 C21         17.0870   -28.8870   -23.8520 cc         1 OO7       0.141400
      8 N22         17.2280   -29.9290   -24.7030 nc         1 OO7      -0.269600
      9 C23         16.1600   -29.9090   -25.4770 cd         1 OO7      -0.129000
     10 C24         15.7740   -30.7660   -26.5400 cd         1 OO7       0.420300
     11 C27         13.8700   -29.5110   -26.8340 cc         1 OO7       0.296900
     12 C30         18.1080   -28.5710   -22.8520 ca         1 OO7      -0.011800
     13 C31         19.4300   -28.9640   -23.0710 ca         1 OO7      -0.084500
     14 C32         20.4150   -28.6770   -22.1390 ca         1 OO7      -0.116000
     15 C33         20.0950   -28.0000   -20.9680 ca         1 OO7      -0.112000
     16 C34         18.7810   -27.6130   -20.7390 ca         1 OO7      -0.116000
     17 C35         17.7960   -27.8950   -21.6720 ca         1 OO7      -0.084500
     18 F1          15.8180   -20.3060   -24.0280 f          1 OO7      -0.111333
     19 F3          16.0620   -20.0790   -26.1590 f          1 OO7      -0.111333
     20 F4          17.6180   -19.4500   -24.8100 f          1 OO7      -0.111333
     21 O5          17.2090   -21.6090   -25.1780 os         1 OO7      -0.400100
     22 C9          19.1990   -23.3840   -21.9860 ca         1 OO7      -0.067300
     23 C10         19.9410   -24.0460   -20.8600 c3         1 OO7       0.199900
     24 O11         19.1250   -24.1000   -19.7200 os         1 OO7      -0.453000
     25 C13         17.8660   -23.6870   -22.2450 ca         1 OO7      -0.066000
     26 C14         17.1690   -23.0960   -23.2940 ca         1 OO7      -0.085300
     27 N16         15.3690   -24.7890   -23.2110 ns         1 OO7      -0.527900
     28 O18         16.5210   -25.6800   -24.9420 o          1 OO7      -0.589100
     29 N19         15.3590   -27.0610   -23.5610 ns         1 OO7      -0.437100
     30 C20         15.9100   -28.2040   -24.1060 cd         1 OO7      -0.032500
     31 N26         14.6620   -30.5590   -27.1890 nc         1 OO7      -0.666000
     32 C28         14.1650   -28.6520   -25.8290 cd         1 OO7      -0.154000
     33 N29         15.3270   -28.8680   -25.1490 na         1 OO7       0.153100
     34 H1          19.7120   -21.1940   -24.5220 ha         1 OO7       0.136000
     35 H2          20.8940   -22.2330   -22.6320 ha         1 OO7       0.120000
     36 H3          19.0950   -24.6600   -17.7730 h1         1 OO7       0.030367
     37 H4          20.1430   -25.6630   -18.7880 h1         1 OO7       0.030367
     38 H5          20.6630   -24.0370   -18.3220 h1         1 OO7       0.030367
     39 H6          15.4570   -23.2390   -24.5900 h1         1 OO7       0.069200
     40 H7          15.0800   -22.7850   -22.9450 h1         1 OO7       0.069200
     41 H8          12.9570   -29.3790   -27.3980 h4         1 OO7       0.035100
     42 H9          19.6870   -29.4910   -23.9800 ha         1 OO7       0.117500
     43 H10         21.4360   -28.9830   -22.3260 ha         1 OO7       0.113000
     44 H11         20.8650   -27.7820   -20.2390 ha         1 OO7       0.108000
     45 H12         18.5120   -27.1010   -19.8250 ha         1 OO7       0.113000
     46 H13         16.7770   -27.6050   -21.4590 ha         1 OO7       0.117500
     47 H14         20.2430   -25.0580   -21.1660 h1         1 OO7       0.036700
     48 H15         20.8680   -23.4920   -20.6550 h1         1 OO7       0.036700
     49 H16         17.3530   -24.4060   -21.6190 ha         1 OO7       0.127000
     50 H17         14.8150   -24.9540   -22.3890 hn         1 OO7       0.315500
     51 H18         14.7390   -27.1450   -22.7680 hn         1 OO7       0.321500
     52 H19         16.2690   -32.4280   -27.7750 hc         1 OO7       0.063367
     53 H20         17.6720   -31.5620   -27.1220 hc         1 OO7       0.063367
     54 H21         16.7370   -32.6160   -26.0780 hc         1 OO7       0.063367
     55 H22         13.5470   -27.8190   -25.5300 h4         1 OO7       0.156000
     56 C15         15.7150   -23.4330   -23.5490 c3         1 OO7       0.170300
     57 C25         16.6600   -31.9080   -26.9040 c3         1 OO7      -0.143400
@<TRIPOS>BOND
     1     1    18 1   
     2     1    19 1   
     3     1    20 1   
     4     1    21 1   
     5     2     3 ar  
     6     2    21 1   
     7     2    26 ar  
     8     3     4 ar  
     9     3    34 1   
    10     4    22 ar  
    11     4    35 1   
    12     5    24 1   
    13     5    36 1   
    14     5    37 1   
    15     5    38 1   
    16     6    27 1   
    17     6    28 2   
    18     6    29 1   
    19     7     8 1   
    20     7    12 1   
    21     7    30 2   
    22     8     9 2   
    23     9    10 1   
    24     9    33 1   
    25    10    31 2   
    26    10    57 1   
    27    11    31 1   
    28    11    32 2   
    29    11    41 1   
    30    12    13 ar  
    31    12    17 ar  
    32    13    14 ar  
    33    13    42 1   
    34    14    15 ar  
    35    14    43 1   
    36    15    16 ar  
    37    15    44 1   
    38    16    17 ar  
    39    16    45 1   
    40    17    46 1   
    41    22    23 1   
    42    22    25 ar  
    43    23    24 1   
    44    23    47 1   
    45    23    48 1   
    46    25    26 ar  
    47    25    49 1   
    48    26    56 1   
    49    27    50 1   
    50    27    56 1   
    51    29    30 1   
    52    29    51 1   
    53    30    33 1   
    54    32    33 1   
    55    32    55 1   
    56    39    56 1   
    57    40    56 1   
    58    52    57 1   
    59    53    57 1   
    60    54    57 1   
@<TRIPOS>SUBSTRUCTURE
     1 OO7         1 TEMP              0 ****  ****    0 ROOT
