@<TRIPOS>MOLECULE
OO8
   36    37     1     0     0
SMALL
bcc


@<TRIPOS>ATOM
      1 C05        -17.7100   -14.4930    10.1260 ca         1 OO8      -0.110500
      2 C06        -17.7310   -15.8910    10.1510 ca         1 OO8      -0.092000
      3 C07        -16.6530   -16.6540    10.5820 ca         1 OO8      -0.185000
      4 C08        -15.4910   -16.0250    11.0040 ca         1 OO8      -0.179000
      5 C09        -15.4330   -14.6390    10.9930 ca         1 OO8      -0.191000
      6 C10        -16.5230   -13.8930    10.5540 ca         1 OO8       0.121100
      7 C12        -16.7510   -11.9190    11.7850 c3         1 OO8       0.050400
      8 C13        -16.1990   -10.5030    11.8160 c          1 OO8       0.678100
      9 C15        -17.6360    -9.8450     9.8550 c3         1 OO8       0.121300
     10 C16        -18.6610    -8.7420     9.9020 ca         1 OO8      -0.058300
     11 C17        -18.7110    -7.7670     8.9120 ca         1 OO8      -0.103000
     12 C18        -19.6530    -6.7460     8.9680 ca         1 OO8      -0.150000
     13 C19        -20.5550    -6.6900    10.0200 ca         1 OO8      -0.154000
     14 C20        -20.5120    -7.6610    11.0150 ca         1 OO8      -0.150000
     15 C21        -19.5730    -8.6780    10.9540 ca         1 OO8      -0.103000
     16 N14        -16.6240    -9.6450    10.8730 ns         1 OO8      -0.553900
     17 O01        -19.5830   -12.5440    10.5270 o          1 OO8      -0.919167
     18 O03        -18.6810   -12.9450     8.1430 o          1 OO8      -0.919167
     19 O04        -20.2470   -14.6590     9.2440 o          1 OO8      -0.919167
     20 O11        -16.3750   -12.5250    10.5580 os         1 OO8      -0.335900
     21 O22        -15.3930   -10.1680    12.6740 o          1 OO8      -0.685100
     22 P02        -19.1950   -13.5640     9.4430 p5         1 OO8       1.164000
     23 H061       -18.6340   -16.3890     9.8220 ha         1 OO8       0.154000
     24 H071       -16.7200   -17.7360    10.5840 ha         1 OO8       0.082000
     25 H081       -14.6390   -16.6020    11.3420 ha         1 OO8       0.077000
     26 H091       -14.5340   -14.1270    11.3180 ha         1 OO8       0.097000
     27 H122       -17.8410   -11.9330    11.8890 h1         1 OO8       0.075700
     28 H121       -16.3100   -12.4510    12.6330 h1         1 OO8       0.075700
     29 H152       -18.1310   -10.8020    10.0130 h1         1 OO8       0.121200
     30 H151       -17.1690    -9.8750     8.8670 h1         1 OO8       0.121200
     31 H171       -18.0090    -7.8050     8.0870 ha         1 OO8       0.142500
     32 H181       -19.6790    -5.9940     8.1900 ha         1 OO8       0.107000
     33 H191       -21.2890    -5.8960    10.0670 ha         1 OO8       0.099000
     34 H201       -21.2170    -7.6260    11.8360 ha         1 OO8       0.107000
     35 H211       -19.5480    -9.4340    11.7300 ha         1 OO8       0.142500
     36 H141       -16.1930    -8.7310    10.9020 hn         1 OO8       0.271500
@<TRIPOS>BOND
     1     1     2 ar  
     2     1     6 ar  
     3     1    22 1   
     4     2     3 ar  
     5     2    23 1   
     6     3     4 ar  
     7     3    24 1   
     8     4     5 ar  
     9     4    25 1   
    10     5     6 ar  
    11     5    26 1   
    12     6    20 1   
    13     7     8 1   
    14     7    20 1   
    15     7    27 1   
    16     7    28 1   
    17     8    16 1   
    18     8    21 2   
    19     9    10 1   
    20     9    16 1   
    21     9    29 1   
    22     9    30 1   
    23    10    11 ar  
    24    10    15 ar  
    25    11    12 ar  
    26    11    31 1   
    27    12    13 ar  
    28    12    32 1   
    29    13    14 ar  
    30    13    33 1   
    31    14    15 ar  
    32    14    34 1   
    33    15    35 1   
    34    16    36 1   
    35    17    22 1   
    36    18    22 1   
    37    19    22 1   
@<TRIPOS>SUBSTRUCTURE
     1 OO8         1 TEMP              0 ****  ****    0 ROOT
