@<TRIPOS>MOLECULE
OO8
   36    37     1     0     0
SMALL
No Charge or Current Charge


@<TRIPOS>ATOM
      1 C05        -17.3140   -14.6140     9.4770 ca         1 OO8      -0.110500
      2 C06        -17.6300   -15.9800     9.6520 ca         1 OO8      -0.074000
      3 C07        -17.3750   -16.6270    10.8720 ca         1 OO8      -0.167000
      4 C08        -16.8000   -15.9180    11.9330 ca         1 OO8      -0.161000
      5 C09        -16.4800   -14.5610    11.7780 ca         1 OO8      -0.173000
      6 C10        -16.7340   -13.8970    10.5520 ca         1 OO8       0.121100
      7 C12        -15.8000   -11.7680    11.4310 c3         1 OO8       0.073600
      8 C13        -15.5770   -10.2970    10.9970 c          1 OO8       0.611100
      9 C15        -18.0710    -9.9850    10.6410 c3         1 OO8       0.121300
     10 C16        -19.0410    -8.8160    10.5400 ca         1 OO8      -0.058300
     11 C17        -19.4970    -8.3750     9.2820 ca         1 OO8      -0.085000
     12 C18        -20.3890    -7.2920     9.1930 ca         1 OO8      -0.132000
     13 C19        -20.8290    -6.6440    10.3590 ca         1 OO8      -0.136000
     14 C20        -20.3760    -7.0780    11.6150 ca         1 OO8      -0.132000
     15 C21        -19.4840    -8.1610    11.7060 ca         1 OO8      -0.085000
     16 N14        -16.6840    -9.5130    10.7410 ns         1 OO8      -0.486900
     17 O01        -18.6570   -12.7180     8.0400 o          1 OO8      -0.919167
     18 O03        -16.4140   -13.2660     7.2700 o          1 OO8      -0.919167
     19 O04        -18.2430   -14.8340     6.9070 o          1 OO8      -0.919167
     20 O11        -16.4260   -12.5580    10.3880 os         1 OO8      -0.359100
     21 O22        -14.4630    -9.7920    10.9360 o          1 OO8      -0.685100
     22 P02        -17.6730   -13.8230     7.8470 p5         1 OO8       1.164000
     23 H061       -18.0770   -16.5450     8.8370 ha         1 OO8       0.136000
     24 H071       -17.6230   -17.6780    10.9910 ha         1 OO8       0.064000
     25 H081       -16.6020   -16.4190    12.8780 ha         1 OO8       0.059000
     26 H091       -16.0370   -14.0410    12.6210 ha         1 OO8       0.079000
     27 H122       -16.4230   -11.7510    12.3330 h1         1 OO8       0.075700
     28 H121       -14.8210   -12.1860    11.6980 h1         1 OO8       0.075700
     29 H152       -18.3260   -10.5920    11.5210 h1         1 OO8       0.121200
     30 H151       -18.1730   -10.6270     9.7550 h1         1 OO8       0.121200
     31 H171       -19.1590    -8.8700     8.3740 ha         1 OO8       0.124500
     32 H181       -20.7380    -6.9550     8.2190 ha         1 OO8       0.089000
     33 H191       -21.5190    -5.8060    10.2880 ha         1 OO8       0.081000
     34 H201       -20.7150    -6.5760    12.5180 ha         1 OO8       0.089000
     35 H211       -19.1350    -8.4890    12.6840 ha         1 OO8       0.124500
     36 H141       -16.4950    -8.5470    10.5030 hn         1 OO8       0.271500
@<TRIPOS>BOND
     1     1     2 ar  
     2     1     6 ar  
     3     1    22 1   
     4     2     3 ar  
     5     2    23 1   
     6     3     4 ar  
     7     3    24 1   
     8     4     5 ar  
     9     4    25 1   
    10     5     6 ar  
    11     5    26 1   
    12     6    20 1   
    13     7     8 1   
    14     7    20 1   
    15     7    27 1   
    16     7    28 1   
    17     8    16 1   
    18     8    21 2   
    19     9    10 1   
    20     9    16 1   
    21     9    29 1   
    22     9    30 1   
    23    10    11 ar  
    24    10    15 ar  
    25    11    12 ar  
    26    11    31 1   
    27    12    13 ar  
    28    12    32 1   
    29    13    14 ar  
    30    13    33 1   
    31    14    15 ar  
    32    14    34 1   
    33    15    35 1   
    34    16    36 1   
    35    17    22 1   
    36    18    22 1   
    37    19    22 1   
@<TRIPOS>SUBSTRUCTURE
     1 OO8         1 TEMP              0 ****  ****    0 ROOT
