@<TRIPOS>MOLECULE
OO9
    7     6     1     0     0
SMALL
No Charge or Current Charge


@<TRIPOS>ATOM
      1 O1         -17.5330    -7.6500   -15.4670 o          1 OO9      -0.912500
      2 O2         -19.4570    -9.0810   -14.9770 o          1 OO9      -0.912500
      3 O3         -17.5760    -8.9840   -13.4210 o          1 OO9      -0.912500
      4 O4         -19.0810    -6.9970   -13.5240 os         1 OO9      -0.407400
      5 O5         -18.6130    -7.1400   -12.1080 oh         1 OO9      -0.575000
      6 P1         -18.4020    -8.2070   -14.3940 p5         1 OO9       1.249900
      7 H3         -18.0420    -7.9600   -12.2600 ho         1 OO9       0.469000
@<TRIPOS>BOND
     1     1     6 1   
     2     2     6 1   
     3     3     6 1   
     4     4     5 1   
     5     4     6 1   
     6     5     7 1   
@<TRIPOS>SUBSTRUCTURE
     1 OO9         1 TEMP              0 ****  ****    0 ROOT
