@<TRIPOS>MOLECULE
OO9
    7     6     1     0     0
SMALL
bcc


@<TRIPOS>ATOM
      1 O1         -17.4700    -7.5370   -15.3310 o          1 OO9      -0.912500
      2 O2         -19.5470    -9.0360   -15.1200 o          1 OO9      -0.912500
      3 O3         -17.6710    -9.1330   -13.3230 o          1 OO9      -0.912500
      4 O4         -19.2310    -7.1890   -13.4310 os         1 OO9      -0.407400
      5 O5         -18.4330    -6.9560   -12.2660 oh         1 OO9      -0.536000
      6 P1         -18.3920    -8.3370   -14.4290 p5         1 OO9       1.249900
      7 H3         -17.9610    -7.8310   -12.2510 ho         1 OO9       0.430000
@<TRIPOS>BOND
     1     1     6 1   
     2     2     6 1   
     3     3     6 1   
     4     4     5 1   
     5     4     6 1   
     6     5     7 1   
@<TRIPOS>SUBSTRUCTURE
     1 OO9         1 TEMP              0 ****  ****    0 ROOT
