@<TRIPOS>MOLECULE
OOA
   24    23     1     0     0
SMALL
bcc


@<TRIPOS>ATOM
      1 C1          -0.2820     0.0050    -3.4630 c          1 OOA       0.940600
      2 C2          -0.8030     0.0210    -2.0080 c3         1 OOA      -0.307400
      3 C3           0.1350    -0.0010    -0.8260 c          1 OOA       0.580100
      4 C4          -0.5650    -0.0080     0.5180 c3         1 OOA      -0.203400
      5 O1           1.3410    -0.0070    -0.8960 o          1 OOA      -0.511100
      6 C5           0.3590    -0.0330     1.7250 c3         1 OOA      -0.064400
      7 C6          -0.4130    -0.0290     3.0390 c3         1 OOA      -0.078400
      8 C7           0.4950    -0.0520     4.2630 c3         1 OOA      -0.076400
      9 C8          -0.2810    -0.0390     5.5720 c3         1 OOA      -0.087100
     10 O3           0.9390     0.0120    -3.6780 o          1 OOA      -0.827300
     11 O31         -1.1910    -0.0110    -4.3180 o          1 OOA      -0.827300
     12 H2C1        -1.4970    -0.8180    -1.8810 hc         1 OOA       0.035700
     13 H2C2        -1.4480     0.8990    -1.8840 hc         1 OOA       0.035700
     14 H4C1        -1.2480    -0.8650     0.5410 hc         1 OOA       0.044700
     15 H4C2        -1.2210     0.8700     0.5590 hc         1 OOA       0.044700
     16 H5C1         1.0290     0.8310     1.6970 hc         1 OOA       0.045700
     17 H5C2         0.9990    -0.9190     1.6840 hc         1 OOA       0.045700
     18 H6C1        -1.0860    -0.8930     3.0730 hc         1 OOA       0.030700
     19 H6C2        -1.0560     0.8570     3.0840 hc         1 OOA       0.030700
     20 H7C1         1.1710     0.8080     4.2270 hc         1 OOA       0.036700
     21 H7C2         1.1340    -0.9400     4.2220 hc         1 OOA       0.036700
     22 H8C1         0.3830    -0.0660     6.4370 hc         1 OOA       0.024700
     23 H8C2        -0.8950     0.8610     5.6550 hc         1 OOA       0.024700
     24 H8C3        -0.9500    -0.8990     5.6430 hc         1 OOA       0.024700
@<TRIPOS>BOND
     1     1     2 1   
     2     1    10 1   
     3     1    11 1   
     4     2     3 1   
     5     2    12 1   
     6     2    13 1   
     7     3     4 1   
     8     3     5 2   
     9     4     6 1   
    10     4    14 1   
    11     4    15 1   
    12     6     7 1   
    13     6    16 1   
    14     6    17 1   
    15     7     8 1   
    16     7    18 1   
    17     7    19 1   
    18     8     9 1   
    19     8    20 1   
    20     8    21 1   
    21     9    22 1   
    22     9    23 1   
    23     9    24 1   
@<TRIPOS>SUBSTRUCTURE
     1 OOA         1 TEMP              0 ****  ****    0 ROOT
