@<TRIPOS>MOLECULE
OOA
   24    23     1     0     0
SMALL
No Charge or Current Charge


@<TRIPOS>ATOM
      1 C1          -1.0070     0.2890    -2.8190 c          1 OOA       0.730000
      2 C2          -0.1410     0.8860    -1.7330 c3         1 OOA      -0.307400
      3 C3           0.4020    -0.3060    -0.9630 c          1 OOA       0.580100
      4 C4          -0.3310    -0.7070     0.3280 c3         1 OOA      -0.203400
      5 O1           1.3990    -0.9100    -1.3370 o          1 OOA      -0.511100
      6 C5           0.3110    -0.0370     1.5650 c3         1 OOA      -0.064400
      7 C6          -0.4000    -0.4050     2.8860 c3         1 OOA      -0.078400
      8 C7           0.2400     0.2620     4.1230 c3         1 OOA      -0.076400
      9 C8          -0.4680    -0.1050     5.4410 c3         1 OOA      -0.087100
     10 O3          -0.4850     0.0170    -3.8870 o          1 OOA      -0.722000
     11 O31         -2.1730     0.0500    -2.5510 o          1 OOA      -0.722000
     12 H2C1        -0.7650     1.4630    -1.0400 hc         1 OOA       0.035700
     13 H2C2         0.7210     1.4050    -2.1680 hc         1 OOA       0.035700
     14 H4C1        -0.2850    -1.7950     0.4500 hc         1 OOA       0.044700
     15 H4C2        -1.3740    -0.3720     0.2790 hc         1 OOA       0.044700
     16 H5C1         0.2920     1.0530     1.4380 hc         1 OOA       0.045700
     17 H5C2         1.3660    -0.3330     1.6290 hc         1 OOA       0.045700
     18 H6C1        -0.3800    -1.4950     3.0140 hc         1 OOA       0.030700
     19 H6C2        -1.4540    -0.1090     2.8230 hc         1 OOA       0.030700
     20 H7C1         0.2210     1.3520     4.0000 hc         1 OOA       0.036700
     21 H7C2         1.2940    -0.0340     4.1910 hc         1 OOA       0.036700
     22 H8C1         0.0200     0.3910     6.2880 hc         1 OOA       0.024700
     23 H8C2        -1.5190     0.2100     5.4180 hc         1 OOA       0.024700
     24 H8C3        -0.4350    -1.1880     5.6110 hc         1 OOA       0.024700
@<TRIPOS>BOND
     1     1     2 1   
     2     1    10 1   
     3     1    11 1   
     4     2     3 1   
     5     2    12 1   
     6     2    13 1   
     7     3     4 1   
     8     3     5 2   
     9     4     6 1   
    10     4    14 1   
    11     4    15 1   
    12     6     7 1   
    13     6    16 1   
    14     6    17 1   
    15     7     8 1   
    16     7    18 1   
    17     7    19 1   
    18     8     9 1   
    19     8    20 1   
    20     8    21 1   
    21     9    22 1   
    22     9    23 1   
    23     9    24 1   
@<TRIPOS>SUBSTRUCTURE
     1 OOA         1 TEMP              0 ****  ****    0 ROOT
