@<TRIPOS>MOLECULE
OOC
   69    70     1     0     0
SMALL
bcc


@<TRIPOS>ATOM
      1 C2          -4.9520    -1.7020     0.5810 c6         1 OOC       0.088100
      2 C4          -6.7490     0.0320     0.4970 c6         1 OOC       0.122100
      3 C5          -5.6990     1.0180    -0.0200 c6         1 OOC       0.162100
      4 C6          -5.9600     2.4310     0.4550 c3         1 OOC       0.145400
      5 O2          -4.6150    -2.9890     0.1270 oh         1 OOC      -0.606800
      6 O4          -8.0010     0.4050    -0.0170 oh         1 OOC      -0.576800
      7 C1          -4.0110    -0.6320     0.0330 c6         1 OOC       0.318900
      8 C3          -6.3740    -1.4000     0.1120 c6         1 OOC       0.119100
      9 O1          -2.7430    -0.8640     0.5250 os         1 OOC      -0.398600
     10 O3          -6.4950    -1.5270    -1.2840 oh         1 OOC      -0.586800
     11 O5          -4.4350     0.6290     0.4770 os         1 OOC      -0.428600
     12 O6          -4.9630     3.2760    -0.0700 oh         1 OOC      -0.587800
     13 C11          1.0450     0.6450    -0.0480 c6         1 OOC       0.211200
     14 C7          -0.0500     1.7060    -0.0260 c6         1 OOC       0.099100
     15 C12         -1.3170     1.1010     0.5910 c6         1 OOC       0.125100
     16 C8          -1.6820    -0.1970    -0.1300 c6         1 OOC       0.137100
     17 C9          -0.4870    -1.1550    -0.1850 c6         1 OOC       0.136100
     18 C10         -0.7840    -2.3570    -1.0590 c3         1 OOC       0.146400
     19 O8          -1.1020     0.7860     1.9450 oh         1 OOC      -0.582800
     20 O9           0.6260    -0.4930    -0.7570 os         1 OOC      -0.372600
     21 O10          0.3040    -3.2470    -1.0020 oh         1 OOC      -0.586800
     22 O7          -0.3650     2.1540    -1.3220 oh         1 OOC      -0.577800
     23 CB           5.1730     0.6800    -0.5880 c3         1 OOC      -0.067400
     24 CC           6.2840    -0.1320     0.0670 c3         1 OOC      -0.074400
     25 CD           7.6740     0.3080    -0.3770 c3         1 OOC      -0.074400
     26 CF           8.7940    -0.4580     0.3150 c3         1 OOC      -0.074400
     27 CG          10.1840    -0.0170    -0.1290 c3         1 OOC      -0.076400
     28 CH          11.3090    -0.7660     0.5750 c3         1 OOC      -0.074400
     29 CI          12.6910    -0.3160     0.1240 c3         1 OOC      -0.088100
     30 H2          -4.9290    -1.6430     1.6790 h1         1 OOC       0.061700
     31 HA          -3.7830    -3.2530     0.5300 ho         1 OOC       0.428000
     32 H1          -4.0120    -0.6610    -1.0710 h2         1 OOC       0.046700
     33 H3          -7.0600    -2.0910     0.6260 h1         1 OOC       0.042700
     34 H4          -6.7400     0.0830     1.5970 h1         1 OOC       0.042700
     35 H5          -5.6960     1.0050    -1.1210 h1         1 OOC       0.078700
     36 HB          -8.6740    -0.1670     0.3660 ho         1 OOC       0.410000
     37 H61C        -6.9600     2.7280     0.1220 h1         1 OOC       0.034200
     38 H62C        -5.9680     2.4440     1.5540 h1         1 OOC       0.034200
     39 H6          -5.1770     4.1770     0.1860 ho         1 OOC       0.403000
     40 HC          -6.1850    -2.4040    -1.5350 ho         1 OOC       0.423000
     41 H10         -1.9700     0.0570    -1.1590 h1         1 OOC       0.074700
     42 H8           1.3140     0.3870     0.9850 h2         1 OOC       0.063700
     43 H7           0.2830     2.5360     0.6120 h1         1 OOC       0.043700
     44 H9          -2.1360     1.8210     0.4730 h1         1 OOC       0.081700
     45 HD           0.2030     2.8970    -1.5460 ho         1 OOC       0.416000
     46 HE          -0.9400     1.6040     2.4250 ho         1 OOC       0.401000
     47 H11         -0.2490    -1.4980     0.8330 h1         1 OOC       0.070700
     48 H6'1        -1.7070    -2.8270    -0.7050 h1         1 OOC       0.028700
     49 H6'2        -0.9760    -2.0080    -2.0830 h1         1 OOC       0.028700
     50 H12          0.0780    -4.0220    -1.5230 ho         1 OOC       0.403000
     51 HA1C         3.7200     0.2800     0.9580 h1         1 OOC       0.065200
     52 HA2C         3.6070    -0.8030    -0.4330 h1         1 OOC       0.065200
     53 HB1C         5.2470     0.5960    -1.6770 hc         1 OOC       0.051200
     54 HB2C         5.3080     1.7390    -0.3460 hc         1 OOC       0.051200
     55 HC1C         6.2040    -0.0380     1.1550 hc         1 OOC       0.040200
     56 HC2C         6.1470    -1.1940    -0.1600 hc         1 OOC       0.040200
     57 HD1C         7.7640     0.1860    -1.4620 hc         1 OOC       0.038700
     58 HD2C         7.7930     1.3790    -0.1810 hc         1 OOC       0.038700
     59 HF1C         8.7030    -0.3320     1.3990 hc         1 OOC       0.037200
     60 HF2C         8.6760    -1.5300     0.1240 hc         1 OOC       0.037200
     61 HG1C        10.2790    -0.1520    -1.2120 hc         1 OOC       0.037200
     62 HG2C        10.2970     1.0580     0.0520 hc         1 OOC       0.037200
     63 HH1C        11.2120    -0.6300     1.6560 hc         1 OOC       0.036700
     64 HH2C        11.1950    -1.8400     0.3950 hc         1 OOC       0.036700
     65 HI1C        12.8430     0.7460     0.3220 hc         1 OOC       0.031367
     66 HI2C        13.4810    -0.8640     0.6400 hc         1 OOC       0.031367
     67 HI3C        12.8270    -0.4730    -0.9480 hc         1 OOC       0.031367
     68 S1           2.5190     1.3060    -0.8490 ss         1 OOC      -0.323200
     69 CA           3.7950     0.2270    -0.1300 c3         1 OOC       0.022700
@<TRIPOS>BOND
     1     1     5 1   
     2     1     7 1   
     3     1     8 1   
     4     1    30 1   
     5     2     3 1   
     6     2     6 1   
     7     2     8 1   
     8     2    34 1   
     9     3     4 1   
    10     3    11 1   
    11     3    35 1   
    12     4    12 1   
    13     4    37 1   
    14     4    38 1   
    15     5    31 1   
    16     6    36 1   
    17     7     9 1   
    18     7    11 1   
    19     7    32 1   
    20     8    10 1   
    21     8    33 1   
    22     9    16 1   
    23    10    40 1   
    24    12    39 1   
    25    13    14 1   
    26    13    20 1   
    27    13    42 1   
    28    13    68 1   
    29    14    15 1   
    30    14    22 1   
    31    14    43 1   
    32    15    16 1   
    33    15    19 1   
    34    15    44 1   
    35    16    17 1   
    36    16    41 1   
    37    17    18 1   
    38    17    20 1   
    39    17    47 1   
    40    18    21 1   
    41    18    48 1   
    42    18    49 1   
    43    19    46 1   
    44    21    50 1   
    45    22    45 1   
    46    23    24 1   
    47    23    53 1   
    48    23    54 1   
    49    23    69 1   
    50    24    25 1   
    51    24    55 1   
    52    24    56 1   
    53    25    26 1   
    54    25    57 1   
    55    25    58 1   
    56    26    27 1   
    57    26    59 1   
    58    26    60 1   
    59    27    28 1   
    60    27    61 1   
    61    27    62 1   
    62    28    29 1   
    63    28    63 1   
    64    28    64 1   
    65    29    65 1   
    66    29    66 1   
    67    29    67 1   
    68    51    69 1   
    69    52    69 1   
    70    68    69 1   
@<TRIPOS>SUBSTRUCTURE
     1 OOC         1 TEMP              0 ****  ****    0 ROOT
