@<TRIPOS>MOLECULE
OOC
   69    70     1     0     0
SMALL
No Charge or Current Charge


@<TRIPOS>ATOM
      1 C2          -5.0730    -1.7940     0.3330 c6         1 OOC       0.111300
      2 C4          -6.7800     0.0640     0.8280 c6         1 OOC       0.145300
      3 C5          -5.6440     1.0860     0.4940 c6         1 OOC       0.185300
      4 C6          -5.7770     2.4120     1.3110 c3         1 OOC       0.168600
      5 O2          -4.8290    -3.0060    -0.4230 oh         1 OOC      -0.729000
      6 O4          -8.0760     0.5630     0.4480 oh         1 OOC      -0.699000
      7 C1          -4.0570    -0.6580    -0.0180 c6         1 OOC       0.365300
      8 C3          -6.5320    -1.2970     0.1060 c6         1 OOC       0.142300
      9 O1          -2.7140    -1.0840     0.2740 os         1 OOC      -0.445000
     10 O3          -6.7970    -1.1730    -1.3030 oh         1 OOC      -0.649000
     11 O5          -4.3480     0.4990     0.7850 os         1 OOC      -0.475000
     12 O6          -4.6990     3.3400     1.0700 oh         1 OOC      -0.710000
     13 C11          0.9370     0.9830    -0.3160 c6         1 OOC       0.282300
     14 C7          -0.3170     1.7530    -0.8330 c6         1 OOC       0.122300
     15 C12         -1.5970     1.1160    -0.2130 c6         1 OOC       0.148300
     16 C8          -1.6470    -0.4330    -0.4730 c6         1 OOC       0.160300
     17 C9          -0.2850    -1.0880    -0.0750 c6         1 OOC       0.159300
     18 C10         -0.2160    -2.5990    -0.4700 c3         1 OOC       0.169600
     19 O8          -1.6950     1.3920     1.1980 oh         1 OOC      -0.705000
     20 O9           0.8320    -0.4010    -0.6970 os         1 OOC      -0.419000
     21 O10          1.0390    -3.2230    -0.1300 oh         1 OOC      -0.709000
     22 O7          -0.3830     1.7030    -2.2770 oh         1 OOC      -0.700000
     23 CB           5.1650     0.9300    -0.6060 c3         1 OOC      -0.067400
     24 CC           6.2370     0.0400     0.0580 c3         1 OOC      -0.074400
     25 CD           7.6780     0.4320    -0.3360 c3         1 OOC      -0.074400
     26 CF           8.7500    -0.4590     0.3280 c3         1 OOC      -0.074400
     27 CG          10.1910    -0.0670    -0.0660 c3         1 OOC      -0.076400
     28 CH          11.2640    -0.9570     0.5980 c3         1 OOC      -0.074400
     29 CI          12.7010    -0.5660     0.2050 c3         1 OOC      -0.088100
     30 H2          -4.9620    -2.0060     1.4080 h1         1 OOC       0.061700
     31 HA          -3.8970    -3.2710    -0.2310 ho         1 OOC       0.527000
     32 H1          -4.1430    -0.4090    -1.0870 h2         1 OOC       0.046700
     33 H3          -7.2130    -2.0430     0.5420 h1         1 OOC       0.042700
     34 H4          -6.7590    -0.1170     1.9130 h1         1 OOC       0.042700
     35 H5          -5.6850     1.3420    -0.5750 h1         1 OOC       0.078700
     36 HB          -8.2180     0.1960    -0.4590 ho         1 OOC       0.509000
     37 H61C        -6.7360     2.8800     1.0550 h1         1 OOC       0.034200
     38 H62C        -5.8170     2.1530     2.3780 h1         1 OOC       0.034200
     39 H6          -4.8490     4.1160     1.6590 ho         1 OOC       0.502000
     40 HC          -6.3880    -1.9770    -1.7030 ho         1 OOC       0.462000
     41 H10         -1.8140    -0.6050    -1.5470 h1         1 OOC       0.074700
     42 H8           1.0160     1.0720     0.7780 h2         1 OOC       0.063700
     43 H7          -0.2450     2.7990    -0.5030 h1         1 OOC       0.043700
     44 H9          -2.4570     1.5720    -0.7280 h1         1 OOC       0.081700
     45 HD           0.5540     1.6570    -2.5830 ho         1 OOC       0.515000
     46 HE          -2.6240     1.1280     1.4250 ho         1 OOC       0.500000
     47 H11         -0.1680    -1.0220     1.0160 h1         1 OOC       0.070700
     48 H6'1        -1.0390    -3.1240     0.0340 h1         1 OOC       0.028700
     49 H6'2        -0.3940    -2.6780    -1.5510 h1         1 OOC       0.028700
     50 H12          1.0070    -4.1430    -0.4810 ho         1 OOC       0.502000
     51 HA1C         3.6080     0.6170     0.8780 h1         1 OOC       0.065200
     52 HA2C         3.5340    -0.5030    -0.5050 h1         1 OOC       0.065200
     53 HB1C         5.2650     0.8670    -1.6970 hc         1 OOC       0.051200
     54 HB2C         5.3380     1.9770    -0.3270 hc         1 OOC       0.051200
     55 HC1C         6.1320     0.1030     1.1490 hc         1 OOC       0.040200
     56 HC2C         6.0590    -1.0070    -0.2210 hc         1 OOC       0.040200
     57 HD1C         7.7830     0.3690    -1.4270 hc         1 OOC       0.038700
     58 HD2C         7.8560     1.4780    -0.0580 hc         1 OOC       0.038700
     59 HF1C         8.6460    -0.3960     1.4190 hc         1 OOC       0.037200
     60 HF2C         8.5730    -1.5050     0.0490 hc         1 OOC       0.037200
     61 HG1C        10.2960    -0.1300    -1.1570 hc         1 OOC       0.037200
     62 HG2C        10.3690     0.9790     0.2130 hc         1 OOC       0.037200
     63 HH1C        11.1630    -0.8960     1.6890 hc         1 OOC       0.036700
     64 HH2C        11.0910    -2.0040     0.3200 hc         1 OOC       0.036700
     65 HI1C        12.9170     0.4670     0.5030 hc         1 OOC       0.031367
     66 HI2C        13.4250    -1.2250     0.7000 hc         1 OOC       0.031367
     67 HI3C        12.8440    -0.6520    -0.8790 hc         1 OOC       0.031367
     68 S1           2.5040     1.6440    -1.0400 ss         1 OOC      -0.419000
     69 CA           3.7290     0.5360    -0.2100 c3         1 OOC       0.070600
@<TRIPOS>BOND
     1     1     5 1   
     2     1     7 1   
     3     1     8 1   
     4     1    30 1   
     5     2     3 1   
     6     2     6 1   
     7     2     8 1   
     8     2    34 1   
     9     3     4 1   
    10     3    11 1   
    11     3    35 1   
    12     4    12 1   
    13     4    37 1   
    14     4    38 1   
    15     5    31 1   
    16     6    36 1   
    17     7     9 1   
    18     7    11 1   
    19     7    32 1   
    20     8    10 1   
    21     8    33 1   
    22     9    16 1   
    23    10    40 1   
    24    12    39 1   
    25    13    14 1   
    26    13    20 1   
    27    13    42 1   
    28    13    68 1   
    29    14    15 1   
    30    14    22 1   
    31    14    43 1   
    32    15    16 1   
    33    15    19 1   
    34    15    44 1   
    35    16    17 1   
    36    16    41 1   
    37    17    18 1   
    38    17    20 1   
    39    17    47 1   
    40    18    21 1   
    41    18    48 1   
    42    18    49 1   
    43    19    46 1   
    44    21    50 1   
    45    22    45 1   
    46    23    24 1   
    47    23    53 1   
    48    23    54 1   
    49    23    69 1   
    50    24    25 1   
    51    24    55 1   
    52    24    56 1   
    53    25    26 1   
    54    25    57 1   
    55    25    58 1   
    56    26    27 1   
    57    26    59 1   
    58    26    60 1   
    59    27    28 1   
    60    27    61 1   
    61    27    62 1   
    62    28    29 1   
    63    28    63 1   
    64    28    64 1   
    65    29    65 1   
    66    29    66 1   
    67    29    67 1   
    68    51    69 1   
    69    52    69 1   
    70    68    69 1   
@<TRIPOS>SUBSTRUCTURE
     1 OOC         1 TEMP              0 ****  ****    0 ROOT
