@<TRIPOS>MOLECULE
OOD
   56    59     1     0     0
SMALL
bcc


@<TRIPOS>ATOM
      1 C2          -2.3170    -1.9220    -0.3860 c          1 OOD       0.661700
      2 C4          -0.0260    -1.4140    -0.4470 c3         1 OOD       0.055400
      3 C5           0.8350    -0.1980    -0.1580 c          1 OOD       0.677100
      4 C8           3.1390     0.5420    -0.2740 cc         1 OOD       0.050300
      5 C15          4.8610    -3.3820     0.9150 ca         1 OOD      -0.119500
      6 C16          5.9960    -3.7150     0.1910 ca         1 OOD      -0.125000
      7 C17          6.6090    -2.7580    -0.6090 ca         1 OOD      -0.119500
      8 C18          6.0820    -1.4780    -0.7000 ca         1 OOD      -0.127000
      9 C21          4.3480     4.3830     1.2250 c3         1 OOD      -0.080433
     10 C23         -3.6680    -1.3440    -0.1840 ca         1 OOD      -0.140600
     11 C24         -4.7720    -2.1860    -0.2920 ca         1 OOD      -0.055500
     12 C27         -5.1360     0.5020     0.3010 ca         1 OOD      -0.141000
     13 C30         -7.9970     1.4020     0.1470 cc         1 OOD       0.393400
     14 O1          -2.1040    -3.0880    -0.6040 o          1 OOD      -0.528000
     15 O3          -1.3680    -1.0020    -0.3000 os         1 OOD      -0.389900
     16 O6           0.4050     0.8170     0.3370 o          1 OOD      -0.534100
     17 N7           2.1390    -0.3920    -0.4890 ns         1 OOD      -0.476100
     18 C9           3.1300     1.9130    -0.2740 cd         1 OOD      -0.299300
     19 C10          4.4770     2.2780    -0.0590 cd         1 OOD       0.342600
     20 N11          5.2410     1.2140     0.0590 nc         1 OOD      -0.502800
     21 N12          4.4220     0.1560    -0.0540 na         1 OOD       0.136300
     22 C13          4.9440    -1.1530     0.0290 ca         1 OOD       0.009800
     23 C14          4.3360    -2.0990     0.8470 ca         1 OOD      -0.127000
     24 C20          4.6990     4.4350    -1.2520 c3         1 OOD      -0.080433
     25 C22          6.5350     3.6670     0.2550 c3         1 OOD      -0.080433
     26 C25         -6.0530    -1.6950    -0.1200 ca         1 OOD      -0.141000
     27 C26         -6.2240    -0.3500     0.1760 ca         1 OOD       0.034800
     28 C28         -3.8590     0.0040     0.1130 ca         1 OOD      -0.055500
     29 N29         -7.5260     0.1650     0.3510 na         1 OOD       0.008500
     30 N31         -9.2690     1.4020     0.4350 nd         1 OOD      -0.377000
     31 N32         -9.5610     0.1550     0.8160 nd         1 OOD      -0.036000
     32 N33         -8.5340    -0.5920     0.7700 nc         1 OOD      -0.196800
     33 H1           0.1650    -1.7910    -1.4550 h1         1 OOD       0.070700
     34 H2           0.2270    -2.2100     0.2600 h1         1 OOD       0.070700
     35 H3           4.3860    -4.1160     1.5520 ha         1 OOD       0.138500
     36 H4           6.4050    -4.7140     0.2510 ha         1 OOD       0.138000
     37 H5           7.4970    -3.0090    -1.1740 ha         1 OOD       0.138500
     38 H6           6.5510    -0.7370    -1.3330 ha         1 OOD       0.150000
     39 H7           4.5780     3.8790     2.1660 hc         1 OOD       0.037367
     40 H8           4.6970     5.4150     1.3030 hc         1 OOD       0.037367
     41 H9           3.2630     4.4100     1.1160 hc         1 OOD       0.037367
     42 H10         -4.6360    -3.2340    -0.5220 ha         1 OOD       0.167000
     43 H11         -5.2700     1.5440     0.5570 ha         1 OOD       0.159500
     44 H12         -7.4150     2.2350    -0.2120 h5         1 OOD       0.079100
     45 H13          2.3960    -1.2540    -0.9500 hn         1 OOD       0.332500
     46 H14          2.2850     2.5630    -0.4250 ha         1 OOD       0.181000
     47 H15          3.4710    -1.8370     1.4430 ha         1 OOD       0.150000
     48 H16          5.0650     5.4610    -1.1890 hc         1 OOD       0.037367
     49 H17          5.1690     3.9620    -2.1150 hc         1 OOD       0.037367
     50 H18          3.6240     4.4780    -1.4370 hc         1 OOD       0.037367
     51 H19          6.8100     3.1580     1.1790 hc         1 OOD       0.037367
     52 H20          7.0560     3.1750    -0.5680 hc         1 OOD       0.037367
     53 H21          6.9040     4.6930     0.3160 hc         1 OOD       0.037367
     54 H22         -6.9040    -2.3530    -0.2230 ha         1 OOD       0.159500
     55 H23         -3.0190     0.6760     0.2130 ha         1 OOD       0.167000
     56 C19          5.0220     3.6780     0.0420 c3         1 OOD      -0.073300
@<TRIPOS>BOND
     1     1    10 1   
     2     1    14 2   
     3     1    15 1   
     4     2     3 1   
     5     2    15 1   
     6     2    33 1   
     7     2    34 1   
     8     3    16 2   
     9     3    17 1   
    10     4    17 1   
    11     4    18 2   
    12     4    21 1   
    13     5     6 ar  
    14     5    23 ar  
    15     5    35 1   
    16     6     7 ar  
    17     6    36 1   
    18     7     8 ar  
    19     7    37 1   
    20     8    22 ar  
    21     8    38 1   
    22     9    39 1   
    23     9    40 1   
    24     9    41 1   
    25     9    56 1   
    26    10    11 ar  
    27    10    28 ar  
    28    11    26 ar  
    29    11    42 1   
    30    12    27 ar  
    31    12    28 ar  
    32    12    43 1   
    33    13    29 1   
    34    13    30 2   
    35    13    44 1   
    36    17    45 1   
    37    18    19 1   
    38    18    46 1   
    39    19    20 2   
    40    19    56 1   
    41    20    21 1   
    42    21    22 1   
    43    22    23 ar  
    44    23    47 1   
    45    24    48 1   
    46    24    49 1   
    47    24    50 1   
    48    24    56 1   
    49    25    51 1   
    50    25    52 1   
    51    25    53 1   
    52    25    56 1   
    53    26    27 ar  
    54    26    54 1   
    55    27    29 1   
    56    28    55 1   
    57    29    32 1   
    58    30    31 1   
    59    31    32 2   
@<TRIPOS>SUBSTRUCTURE
     1 OOD         1 TEMP              0 ****  ****    0 ROOT
