@<TRIPOS>MOLECULE
OOD
   56    59     1     0     0
SMALL
No Charge or Current Charge


@<TRIPOS>ATOM
      1 C2          -2.4480    -1.8470    -0.1200 c          1 OOD       0.612700
      2 C4          -0.1030    -1.2270    -0.1050 c3         1 OOD       0.078600
      3 C5           0.8430    -0.0060    -0.0200 c          1 OOD       0.610100
      4 C8           3.3000     0.5170    -0.0210 cc         1 OOD      -0.000400
      5 C15          5.2300    -3.3650     0.9230 ca         1 OOD      -0.101500
      6 C16          6.0560    -3.7990    -0.1280 ca         1 OOD      -0.107000
      7 C17          6.4170    -2.9060    -1.1520 ca         1 OOD      -0.101500
      8 C18          5.9490    -1.5800    -1.1270 ca         1 OOD      -0.109000
      9 C21          4.7190     4.3710     1.4090 c3         1 OOD      -0.080433
     10 C23         -3.8710    -1.3400    -0.0580 ca         1 OOD      -0.140600
     11 C24         -4.9450    -2.2540    -0.1170 ca         1 OOD      -0.037500
     12 C27         -5.4880     0.4900     0.1170 ca         1 OOD      -0.123000
     13 C30         -8.3590     1.1630    -0.4720 cc         1 OOD       0.393400
     14 O1          -2.1690    -3.0350    -0.2210 o          1 OOD      -0.479000
     15 O3          -1.5040    -0.8530    -0.0540 os         1 OOD      -0.413100
     16 O6           0.4360     1.1460     0.0780 o          1 OOD      -0.534100
     17 N7           2.1910    -0.3290    -0.0650 ns         1 OOD      -0.409100
     18 C9           3.3480     1.8790     0.0420 cd         1 OOD      -0.216000
     19 C10          4.7160     2.2660     0.0440 cd         1 OOD       0.277300
     20 N11          5.5340     1.2230    -0.0130 nc         1 OOD      -0.502800
     21 N12          4.6460     0.1750    -0.0580 na         1 OOD       0.187000
     22 C13          5.1160    -1.1400    -0.0780 ca         1 OOD       0.009800
     23 C14          4.7620    -2.0400     0.9490 ca         1 OOD      -0.109000
     24 C20          4.6870     4.4890    -1.1190 c3         1 OOD      -0.080433
     25 C22          6.7860     3.7800     0.0870 c3         1 OOD      -0.080433
     26 C25         -6.2740    -1.8000    -0.0590 ca         1 OOD      -0.123000
     27 C26         -6.5590    -0.4250     0.0570 ca         1 OOD       0.034800
     28 C28         -4.1570     0.0390     0.0610 ca         1 OOD      -0.037500
     29 N29         -7.8830     0.0230     0.1100 na         1 OOD       0.008500
     30 N31         -9.6320     1.2330    -0.1240 nd         1 OOD      -0.377000
     31 N32         -9.8880     0.1310     0.6750 nd         1 OOD      -0.036000
     32 N33         -8.8250    -0.6150     0.8390 nc         1 OOD      -0.196800
     33 H1           0.1230    -1.7530    -1.0410 h1         1 OOD       0.070700
     34 H2           0.1500    -1.8960     0.7270 h1         1 OOD       0.070700
     35 H3           4.9550    -4.0550     1.7180 ha         1 OOD       0.120500
     36 H4           6.4190    -4.8240    -0.1480 ha         1 OOD       0.120000
     37 H5           7.0580    -3.2410    -1.9650 ha         1 OOD       0.120500
     38 H6           6.2310    -0.8940    -1.9230 ha         1 OOD       0.132000
     39 H7           5.0740     3.8210     2.2900 hc         1 OOD       0.037367
     40 H8           5.0750     5.4050     1.4900 hc         1 OOD       0.037367
     41 H9           3.6230     4.3890     1.4430 hc         1 OOD       0.037367
     42 H10         -4.7540    -3.3220    -0.2080 ha         1 OOD       0.149000
     43 H11         -5.6790     1.5560     0.2180 ha         1 OOD       0.141500
     44 H12         -7.7820     1.8380    -1.0910 h5         1 OOD       0.079100
     45 H13          2.3730    -1.3230    -0.1450 hn         1 OOD       0.332500
     46 H14          2.5070     2.5590     0.0800 ha         1 OOD       0.163000
     47 H15          4.1300    -1.7090     1.7710 ha         1 OOD       0.132000
     48 H16          5.0410     5.5270    -1.1120 hc         1 OOD       0.037367
     49 H17          5.0170     4.0240    -2.0560 hc         1 OOD       0.037367
     50 H18          3.5900     4.5100    -1.1220 hc         1 OOD       0.037367
     51 H19          7.2160     3.2510     0.9470 hc         1 OOD       0.037367
     52 H20          7.1930     3.3340    -0.8280 hc         1 OOD       0.037367
     53 H21          7.1290     4.8220     0.1310 hc         1 OOD       0.037367
     54 H22         -7.0850    -2.5240    -0.1110 ha         1 OOD       0.141500
     55 H23         -3.3540     0.7720     0.1120 ha         1 OOD       0.149000
     56 C19          5.2300     3.7050     0.1040 c3         1 OOD      -0.073300
@<TRIPOS>BOND
     1     1    10 1   
     2     1    14 2   
     3     1    15 1   
     4     2     3 1   
     5     2    15 1   
     6     2    33 1   
     7     2    34 1   
     8     3    16 2   
     9     3    17 1   
    10     4    17 1   
    11     4    18 2   
    12     4    21 1   
    13     5     6 ar  
    14     5    23 ar  
    15     5    35 1   
    16     6     7 ar  
    17     6    36 1   
    18     7     8 ar  
    19     7    37 1   
    20     8    22 ar  
    21     8    38 1   
    22     9    39 1   
    23     9    40 1   
    24     9    41 1   
    25     9    56 1   
    26    10    11 ar  
    27    10    28 ar  
    28    11    26 ar  
    29    11    42 1   
    30    12    27 ar  
    31    12    28 ar  
    32    12    43 1   
    33    13    29 1   
    34    13    30 2   
    35    13    44 1   
    36    17    45 1   
    37    18    19 1   
    38    18    46 1   
    39    19    20 2   
    40    19    56 1   
    41    20    21 1   
    42    21    22 1   
    43    22    23 ar  
    44    23    47 1   
    45    24    48 1   
    46    24    49 1   
    47    24    50 1   
    48    24    56 1   
    49    25    51 1   
    50    25    52 1   
    51    25    53 1   
    52    25    56 1   
    53    26    27 ar  
    54    26    54 1   
    55    27    29 1   
    56    28    55 1   
    57    29    32 1   
    58    30    31 1   
    59    31    32 2   
@<TRIPOS>SUBSTRUCTURE
     1 OOD         1 TEMP              0 ****  ****    0 ROOT
