@<TRIPOS>MOLECULE
OOE
   65    71     1     0     0
SMALL
abcg2


@<TRIPOS>ATOM
      1 N          -14.9880    18.0830    -8.7800 nb         1 OOE      -0.292000
      2 C          -14.8010    19.3620    -9.1260 ca         1 OOE       0.157900
      3 O          -22.0060    19.5300    -5.5710 o          1 OOE      -0.818000
      4 N11        -16.2180    16.4760    -7.6410 nv         1 OOE      -1.068900
      5 C1         -16.5910    20.0780    -8.0430 ca         1 OOE       0.114500
      6 C10        -19.5770    14.2830    -9.2960 cc         1 OOE       0.694800
      7 C11        -19.9820    16.3860    -9.9020 cd         1 OOE       0.113400
      8 C12        -18.7020    16.6310   -10.3890 cc         1 OOE       0.104500
      9 C13        -17.7530    15.5700   -10.3740 c          1 OOE       0.512500
     10 C14        -19.7950    18.4480   -10.6800 cd         1 OOE       0.462400
     11 C15        -22.3990    19.7570    -8.6100 c5         1 OOE       0.189300
     12 C16        -22.3520    18.2490    -8.3930 c5         1 OOE       0.126300
     13 C17        -22.1000    17.7360    -9.8110 c5         1 OOE       0.283300
     14 C18        -23.0800    19.8670    -9.9720 c5         1 OOE       0.142300
     15 C19        -22.7650    21.1200   -10.7550 c3         1 OOE       0.236600
     16 C2         -16.9120    18.7930    -7.6110 ca         1 OOE      -0.076600
     17 C3         -16.0470    17.7600    -8.0140 ca         1 OOE       0.425900
     18 C4         -18.4350    20.0720    -6.8310 cc         1 OOE       0.454700
     19 C5         -19.6490    22.6050    -9.0300 c5         1 OOE       0.185300
     20 C6         -18.1350    22.6170    -9.1970 c5         1 OOE       0.125300
     21 C7         -17.6820    22.3370    -7.7660 c5         1 OOE       0.291300
     22 C8         -19.8220    23.3020    -7.6820 c5         1 OOE       0.141300
     23 C9         -21.0910    22.9800    -6.9290 c3         1 OOE       0.236600
     24 F6         -23.6100    17.7890    -7.9860 f          1 OOE      -0.259000
     25 F9         -17.7040    23.9010    -9.5480 f          1 OOE      -0.260000
     26 N1         -15.5460    20.4190    -8.8060 nb         1 OOE      -0.208000
     27 N2         -17.5780    20.8920    -7.5340 na         1 OOE      -0.315300
     28 N21        -19.9250    13.0800    -8.7930 nv         1 OOE      -1.060200
     29 N3         -18.0690    18.8120    -6.8540 nd         1 OOE      -0.582100
     30 N4         -18.3000    14.4170    -9.7730 ns         1 OOE      -0.466400
     31 N5         -20.4630    15.2580    -9.3470 nd         1 OOE      -0.672100
     32 N6         -20.6790    17.5510   -10.1010 na         1 OOE      -0.191500
     33 N7         -18.6100    17.9260   -10.8680 nc         1 OOE      -0.614000
     34 O1         -18.6590    22.8980    -6.9200 os         1 OOE      -0.453000
     35 O10        -20.3940    23.2620   -10.0290 os         1 OOE      -0.573400
     36 O2         -21.1000    21.5980    -6.5850 os         1 OOE      -0.631400
     37 O4         -21.5260    23.4290   -12.2360 o          1 OOE      -0.814500
     38 O5         -22.6500    18.6930   -10.6920 os         1 OOE      -0.449000
     39 O7         -23.1150    20.5090    -7.6600 os         1 OOE      -0.574400
     40 O8         -21.3720    21.1580   -11.0500 os         1 OOE      -0.630400
     41 P          -22.4620    20.8080    -6.1870 p5         1 OOE       1.409800
     42 P1         -20.6130    22.5290   -11.4820 p5         1 OOE       1.405800
     43 H          -13.9330    19.5580    -9.7470 h5         1 OOE       0.029100
     44 H111       -15.6970    15.7680    -8.1330 hn         1 OOE       0.485000
     45 H1         -17.0970    16.2010    -7.2340 hn         1 OOE       0.485000
     46 H15        -21.3660    20.1030    -8.6800 h1         1 OOE       0.064700
     47 H16        -21.6210    17.9150    -7.6640 h1         1 OOE       0.120700
     48 H17        -22.5810    16.7680    -9.9510 h2         1 OOE       0.088700
     49 H18        -24.1630    19.8240    -9.8250 h1         1 OOE       0.064700
     50 H192       -23.0660    21.9810   -10.1520 h1         1 OOE       0.040200
     51 H191       -23.3350    21.1340   -11.6860 h1         1 OOE       0.040200
     52 H4         -19.3090    20.4700    -6.3450 h5         1 OOE       0.126800
     53 H5         -19.9540    21.5610    -8.9470 h1         1 OOE       0.061700
     54 H6         -17.7500    21.9210    -9.9330 h1         1 OOE       0.131700
     55 H7         -16.7080    22.7810    -7.5620 h2         1 OOE       0.088700
     56 H8         -19.7880    24.3840    -7.8380 h1         1 OOE       0.064700
     57 H92        -21.1490    23.5810    -6.0200 h1         1 OOE       0.039200
     58 H91        -21.9400    23.2350    -7.5690 h1         1 OOE       0.039200
     59 HN22       -20.8010    13.0270    -8.3000 hn         1 OOE       0.488500
     60 HN23       -19.2180    12.4080    -8.5440 hn         1 OOE       0.488500
     61 HN4        -17.6750    13.6220    -9.7270 hn         1 OOE       0.301500
     62 O22        -19.2970    22.0870   -12.0230 o          1 OOE      -0.814500
     63 O9         -16.6010    15.5470   -10.8020 o          1 OOE      -0.546000
     64 O3         -23.4280    21.7180    -5.5140 o          1 OOE      -0.818000
     65 H14        -20.1040    19.4460   -10.9420 h5         1 OOE       0.124100
@<TRIPOS>BOND
     1     1     2 ar  
     2     1    17 ar  
     3     2    26 ar  
     4     2    43 1   
     5     3    41 1   
     6     4    17 1   
     7     4    44 1   
     8     4    45 1   
     9     5    16 ar  
    10     5    26 ar  
    11     5    27 1   
    12     6    28 1   
    13     6    30 1   
    14     6    31 2   
    15     7     8 2   
    16     7    31 1   
    17     7    32 1   
    18     8     9 1   
    19     8    33 1   
    20     9    30 1   
    21     9    63 2   
    22    10    32 1   
    23    10    33 2   
    24    10    65 1   
    25    11    12 1   
    26    11    14 1   
    27    11    39 1   
    28    11    46 1   
    29    12    13 1   
    30    12    24 1   
    31    12    47 1   
    32    13    32 1   
    33    13    38 1   
    34    13    48 1   
    35    14    15 1   
    36    14    38 1   
    37    14    49 1   
    38    15    40 1   
    39    15    50 1   
    40    15    51 1   
    41    16    17 ar  
    42    16    29 1   
    43    18    27 1   
    44    18    29 2   
    45    18    52 1   
    46    19    20 1   
    47    19    22 1   
    48    19    35 1   
    49    19    53 1   
    50    20    21 1   
    51    20    25 1   
    52    20    54 1   
    53    21    27 1   
    54    21    34 1   
    55    21    55 1   
    56    22    23 1   
    57    22    34 1   
    58    22    56 1   
    59    23    36 1   
    60    23    57 1   
    61    23    58 1   
    62    28    59 1   
    63    28    60 1   
    64    30    61 1   
    65    35    42 1   
    66    36    41 1   
    67    37    42 1   
    68    39    41 1   
    69    40    42 1   
    70    41    64 1   
    71    42    62 1   
@<TRIPOS>SUBSTRUCTURE
     1 OOE         1 TEMP              0 ****  ****    0 ROOT
