@<TRIPOS>MOLECULE
OOE
   65    71     1     0     0
SMALL
No Charge or Current Charge


@<TRIPOS>ATOM
      1 N          -17.0500    17.5250    -8.1130 nb         1 OOE      -0.292000
      2 C          -17.3860    18.4850    -9.0060 ca         1 OOE       0.157900
      3 O          -21.3630    18.6020    -6.1860 o          1 OOE      -0.818000
      4 N11        -16.4810    16.9830    -5.9560 nv         1 OOE      -1.068900
      5 C1         -17.3250    20.2000    -7.4860 ca         1 OOE       0.114500
      6 C10        -19.2740    14.6220    -9.6270 cc         1 OOE       0.694800
      7 C11        -20.1460    16.4200   -10.6720 cd         1 OOE       0.113400
      8 C12        -19.0500    16.5240   -11.4860 cc         1 OOE       0.104500
      9 C13        -17.9230    15.5680   -11.3580 c          1 OOE       0.512500
     10 C14        -20.3800    18.1200   -12.0660 cd         1 OOE       0.462400
     11 C15        -22.1080    19.4660    -8.9730 c5         1 OOE       0.189300
     12 C16        -22.4550    17.9460    -8.9740 c5         1 OOE       0.126300
     13 C17        -22.3540    17.6550   -10.4990 c5         1 OOE       0.283300
     14 C18        -22.8940    19.9450   -10.2320 c5         1 OOE       0.142300
     15 C19        -22.3450    21.2170   -10.9300 c3         1 OOE       0.236600
     16 C2         -16.9660    19.3050    -6.5060 ca         1 OOE      -0.076600
     17 C3         -16.8370    17.9430    -6.8550 ca         1 OOE       0.425900
     18 C4         -17.0150    21.2210    -5.5260 cc         1 OOE       0.454700
     19 C5         -19.4410    22.5140    -8.8970 c5         1 OOE       0.185300
     20 C6         -17.9300    22.9100    -8.9490 c5         1 OOE       0.125300
     21 C7         -17.5690    22.7640    -7.4400 c5         1 OOE       0.291300
     22 C8         -19.8940    23.1780    -7.5580 c5         1 OOE       0.141300
     23 C9         -20.9860    22.4160    -6.7570 c3         1 OOE       0.236600
     24 F6         -23.7590    17.6980    -8.5100 f          1 OOE      -0.259000
     25 F9         -17.7450    24.2390    -9.3700 f          1 OOE      -0.260000
     26 N1         -17.5330    19.8070    -8.7590 nb         1 OOE      -0.208000
     27 N2         -17.3690    21.4250    -6.8640 na         1 OOE      -0.315300
     28 N21        -19.3380    13.6560    -8.7300 nv         1 OOE      -1.060200
     29 N3         -16.7680    19.9210    -5.2680 nd         1 OOE      -0.582100
     30 N4         -18.1500    14.6520   -10.3780 ns         1 OOE      -0.466400
     31 N5         -20.3050    15.4340    -9.6990 nd         1 OOE      -0.672100
     32 N6         -21.0080    17.4280   -11.0290 na         1 OOE      -0.191500
     33 N7         -19.1920    17.5800   -12.3560 nc         1 OOE      -0.614000
     34 O1         -18.6890    23.3800    -6.7660 os         1 OOE      -0.453000
     35 O10        -20.1810    23.1190    -9.9900 os         1 OOE      -0.573400
     36 O2         -20.6870    21.0120    -6.7270 os         1 OOE      -0.631400
     37 O4         -20.7390    23.2250   -12.4960 o          1 OOE      -0.814500
     38 O5         -22.9430    18.8110   -11.1440 os         1 OOE      -0.449000
     39 O7         -22.6730    20.1220    -7.8070 os         1 OOE      -0.574400
     40 O8         -20.9270    21.0890   -11.1100 os         1 OOE      -0.630400
     41 P          -21.8790    19.9830    -6.4090 p5         1 OOE       1.409800
     42 P1         -20.0740    22.4130   -11.4370 p5         1 OOE       1.405800
     43 H          -17.5390    18.1660   -10.0330 h5         1 OOE       0.029100
     44 H111       -16.6720    16.0130    -6.1890 hn         1 OOE       0.485000
     45 H1         -16.5120    17.2380    -4.9720 hn         1 OOE       0.485000
     46 H15        -21.0260    19.6450    -9.0450 h1         1 OOE       0.064700
     47 H16        -21.7510    17.3430    -8.3890 h1         1 OOE       0.120700
     48 H17        -22.9200    16.7500   -10.7530 h2         1 OOE       0.088700
     49 H18        -23.9320    20.1610    -9.9480 h1         1 OOE       0.064700
     50 H192       -22.5820    22.0840   -10.3000 h1         1 OOE       0.040200
     51 H191       -22.8530    21.3480   -11.8940 h1         1 OOE       0.040200
     52 H4         -16.9560    22.0380    -4.8140 h5         1 OOE       0.126800
     53 H5         -19.5850    21.4270    -8.8940 h1         1 OOE       0.061700
     54 H6         -17.3280    22.2580    -9.5920 h1         1 OOE       0.131700
     55 H7         -16.6470    23.3170    -7.2190 h2         1 OOE       0.088700
     56 H8         -20.2970    24.1780    -7.7660 h1         1 OOE       0.064700
     57 H92        -21.0400    22.8270    -5.7400 h1         1 OOE       0.039200
     58 H91        -21.9530    22.5970    -7.2450 h1         1 OOE       0.039200
     59 HN22       -20.0900    13.7720    -8.0610 hn         1 OOE       0.488500
     60 HN23       -18.4640    13.3160    -8.3500 hn         1 OOE       0.488500
     61 HN4        -17.4430    13.9490   -10.2370 hn         1 OOE       0.301500
     62 O22        -18.6690    22.0720   -11.8000 o          1 OOE      -0.814500
     63 O9         -16.8980    15.5600   -12.0270 o          1 OOE      -0.546000
     64 O3         -22.7030    20.4600    -5.2610 o          1 OOE      -0.818000
     65 H14        -20.8430    18.9650   -12.5640 h5         1 OOE       0.124100
@<TRIPOS>BOND
     1     1     2 ar  
     2     1    17 ar  
     3     2    26 ar  
     4     2    43 1   
     5     3    41 1   
     6     4    17 1   
     7     4    44 1   
     8     4    45 1   
     9     5    16 ar  
    10     5    26 ar  
    11     5    27 1   
    12     6    28 1   
    13     6    30 1   
    14     6    31 2   
    15     7     8 2   
    16     7    31 1   
    17     7    32 1   
    18     8     9 1   
    19     8    33 1   
    20     9    30 1   
    21     9    63 2   
    22    10    32 1   
    23    10    33 2   
    24    10    65 1   
    25    11    12 1   
    26    11    14 1   
    27    11    39 1   
    28    11    46 1   
    29    12    13 1   
    30    12    24 1   
    31    12    47 1   
    32    13    32 1   
    33    13    38 1   
    34    13    48 1   
    35    14    15 1   
    36    14    38 1   
    37    14    49 1   
    38    15    40 1   
    39    15    50 1   
    40    15    51 1   
    41    16    17 ar  
    42    16    29 1   
    43    18    27 1   
    44    18    29 2   
    45    18    52 1   
    46    19    20 1   
    47    19    22 1   
    48    19    35 1   
    49    19    53 1   
    50    20    21 1   
    51    20    25 1   
    52    20    54 1   
    53    21    27 1   
    54    21    34 1   
    55    21    55 1   
    56    22    23 1   
    57    22    34 1   
    58    22    56 1   
    59    23    36 1   
    60    23    57 1   
    61    23    58 1   
    62    28    59 1   
    63    28    60 1   
    64    30    61 1   
    65    35    42 1   
    66    36    41 1   
    67    37    42 1   
    68    39    41 1   
    69    40    42 1   
    70    41    64 1   
    71    42    62 1   
@<TRIPOS>SUBSTRUCTURE
     1 OOE         1 TEMP              0 ****  ****    0 ROOT
