@<TRIPOS>MOLECULE
OOF
   60    64     1     0     0
SMALL
abcg2


@<TRIPOS>ATOM
      1 N1          -1.5990     0.3520     0.0320 na         1 OOF      -0.161600
      2 C2          -1.3270     1.6820     0.2300 cc         1 OOF       0.464400
      3 N3          -2.0160     2.4700    -0.5430 nd         1 OOF      -0.554100
      4 C4          -2.5370     0.2960    -0.9740 ca         1 OOF      -0.054200
      5 C5          -2.7910     1.6360    -1.3050 ca         1 OOF       0.068400
      6 C6           0.0460    -1.3890    -0.2690 c          1 OOF       0.588100
      7 C7          -0.9350    -0.7460     0.7180 c3         1 OOF       0.003300
      8 C8          -3.1790    -0.7570    -1.6210 ca         1 OOF      -0.107000
      9 C9          -3.7210     1.9630    -2.2920 ca         1 OOF      -0.074000
     10 C11         -4.0920    -0.4080    -2.5860 ca         1 OOF       0.140000
     11 C12         -0.3160     2.1380     1.2010 ca         1 OOF      -0.120900
     12 C13         -4.3620     0.9240    -2.9160 ca         1 OOF       0.109000
     13 C16          4.8480    -1.6510    -2.3050 ca         1 OOF      -0.139600
     14 O17          7.1130    -1.1690    -2.7550 o          1 OOF      -0.718000
     15 C18         -1.8830    -1.7520     1.3710 c6         1 OOF      -0.061700
     16 C19          0.9230     2.5750     0.7420 ca         1 OOF      -0.074500
     17 C20         -0.5770     2.1300     2.5680 ca         1 OOF      -0.074500
     18 C21          2.4590    -1.2420    -0.8770 ca         1 OOF      -0.080000
     19 C22          4.7830    -0.7190    -1.2720 ca         1 OOF      -0.067500
     20 C23          3.6940    -2.3680    -2.6010 ca         1 OOF      -0.067500
     21 F24         -4.7480    -1.3660    -3.2520 f          1 OOF      -0.165000
     22 F25         -5.2680     1.1640    -3.8730 f          1 OOF      -0.170000
     23 O26          6.1110    -2.7440    -3.9720 o          1 OOF      -0.718000
     24 C27          1.6200     2.9690     2.9940 ca         1 OOF       0.130000
     25 C28          3.6110    -0.5160    -0.5670 ca         1 OOF      -0.168500
     26 C29          2.5070    -2.1790    -1.9080 ca         1 OOF      -0.168500
     27 C30          1.8980     2.9910     1.6360 ca         1 OOF      -0.109500
     28 C31          0.3890     2.5450     3.4710 ca         1 OOF      -0.109500
     29 CL32         2.8330     3.4780     4.1170 cl         1 OOF      -0.197000
     30 C33         -1.0630    -2.7370     2.2110 c6         1 OOF      -0.074900
     31 C34         -2.9210    -1.0330     2.2340 c6         1 OOF      -0.074900
     32 C35         -3.8040    -2.0170     2.9950 c6         1 OOF      -0.072900
     33 C36         -1.9550    -3.7100     2.9740 c6         1 OOF      -0.072900
     34 C37         -2.9710    -2.9740     3.8390 c6         1 OOF      -0.076400
     35 H7          -0.3740    -0.2840     1.5330 h1         1 OOF       0.071700
     36 H8          -2.9760    -1.7970    -1.4170 ha         1 OOF       0.158000
     37 H9          -3.9300     2.9910    -2.5580 ha         1 OOF       0.145000
     38 HN10         1.4850    -0.3300     0.6580 hn         1 OOF       0.139000
     39 H18         -2.4070    -2.3300     0.6040 hc         1 OOF       0.075700
     40 H19          1.1360     2.5890    -0.3190 ha         1 OOF       0.134000
     41 H20         -1.5390     1.7980     2.9370 ha         1 OOF       0.134000
     42 H22          5.6600    -0.1410    -1.0140 ha         1 OOF       0.131500
     43 H23          3.7180    -3.1000    -3.3970 ha         1 OOF       0.131500
     44 H28          3.5890     0.2160     0.2330 ha         1 OOF       0.102000
     45 H29          1.6400    -2.7620    -2.1740 ha         1 OOF       0.102000
     46 H30          2.8600     3.3260     1.2740 ha         1 OOF       0.136000
     47 H31          0.1810     2.5360     4.5320 ha         1 OOF       0.136000
     48 H33         -0.3740    -3.2980     1.5750 hc         1 OOF       0.045450
     49 H33A        -0.4460    -2.1790     2.9260 hc         1 OOF       0.045450
     50 H34         -2.4080    -0.3830     2.9530 hc         1 OOF       0.045450
     51 H34A        -3.5470    -0.3840     1.6190 hc         1 OOF       0.045450
     52 H35         -4.5080    -1.4670     3.6220 hc         1 OOF       0.041200
     53 H35A        -4.4050    -2.5900     2.2800 hc         1 OOF       0.041200
     54 H36         -2.4830    -4.3530     2.2610 hc         1 OOF       0.041200
     55 H36A        -1.3350    -4.3700     3.5850 hc         1 OOF       0.041200
     56 H37         -2.4450    -2.4080     4.6160 hc         1 OOF       0.036700
     57 H37A        -3.6180    -3.6870     4.3550 hc         1 OOF       0.036700
     58 N10          1.3210    -0.9670    -0.1070 ns         1 OOF      -0.123000
     59 O15         -0.3320    -2.1640    -1.1250 o          1 OOF      -0.577100
     60 C14          6.1380    -1.8750    -3.0790 c          1 OOF       0.713600
@<TRIPOS>BOND
     1     1     2 1   
     2     1     4 1   
     3     1     7 1   
     4     2     3 2   
     5     2    11 1   
     6     3     5 1   
     7     4     5 ar  
     8     4     8 ar  
     9     5     9 ar  
    10     6     7 1   
    11     6    58 1   
    12     6    59 2   
    13     7    15 1   
    14     7    35 1   
    15     8    10 ar  
    16     8    36 1   
    17     9    12 ar  
    18     9    37 1   
    19    10    12 ar  
    20    10    21 1   
    21    11    16 ar  
    22    11    17 ar  
    23    12    22 1   
    24    13    19 ar  
    25    13    20 ar  
    26    13    60 1   
    27    14    60 1   
    28    15    30 1   
    29    15    31 1   
    30    15    39 1   
    31    16    27 ar  
    32    16    40 1   
    33    17    28 ar  
    34    17    41 1   
    35    18    25 ar  
    36    18    26 ar  
    37    18    58 1   
    38    19    25 ar  
    39    19    42 1   
    40    20    26 ar  
    41    20    43 1   
    42    23    60 1   
    43    24    27 ar  
    44    24    28 ar  
    45    24    29 1   
    46    25    44 1   
    47    26    45 1   
    48    27    46 1   
    49    28    47 1   
    50    30    33 1   
    51    30    48 1   
    52    30    49 1   
    53    31    32 1   
    54    31    50 1   
    55    31    51 1   
    56    32    34 1   
    57    32    52 1   
    58    32    53 1   
    59    33    34 1   
    60    33    54 1   
    61    33    55 1   
    62    34    56 1   
    63    34    57 1   
    64    38    58 1   
@<TRIPOS>SUBSTRUCTURE
     1 OOF         1 TEMP              0 ****  ****    0 ROOT
