@<TRIPOS>MOLECULE
OOF
   60    64     1     0     0
SMALL
No Charge or Current Charge


@<TRIPOS>ATOM
      1 N1          -1.6470     0.4280     0.1100 na         1 OOF      -0.161600
      2 C2          -1.2780     1.7780     0.2770 cc         1 OOF       0.464400
      3 N3          -1.9110     2.5700    -0.6100 nd         1 OOF      -0.554100
      4 C4          -2.5490     0.3990    -0.9260 ca         1 OOF      -0.054200
      5 C5          -2.7040     1.6960    -1.3390 ca         1 OOF       0.068400
      6 C6          -0.0420    -1.4360    -0.3470 c          1 OOF       0.588100
      7 C7          -0.9950    -0.7850     0.6850 c3         1 OOF       0.003300
      8 C8          -3.2310    -0.6640    -1.5470 ca         1 OOF      -0.107000
      9 C9          -3.5660     2.0260    -2.3940 ca         1 OOF      -0.074000
     10 C11         -4.1040    -0.3540    -2.6080 ca         1 OOF       0.140000
     11 C12         -0.2550     2.2740     1.2080 ca         1 OOF      -0.120900
     12 C13         -4.2740     0.9870    -3.0290 ca         1 OOF       0.109000
     13 C16          4.9110    -1.8330    -2.3130 ca         1 OOF      -0.139600
     14 O17          7.2110    -1.4710    -2.7190 o          1 OOF      -0.718000
     15 C18         -1.9280    -1.8060     1.4370 c6         1 OOF      -0.061700
     16 C19          0.6620     3.2580     0.7770 ca         1 OOF      -0.074500
     17 C20         -0.2270     1.8670     2.5610 ca         1 OOF      -0.074500
     18 C21          2.4580    -1.3030    -0.9660 ca         1 OOF      -0.080000
     19 C22          4.8360    -0.8470    -1.3040 ca         1 OOF      -0.067500
     20 C23          3.7360    -2.5510    -2.6360 ca         1 OOF      -0.067500
     21 F24         -4.7770    -1.3520    -3.2270 f          1 OOF      -0.165000
     22 F25         -5.1110     1.2800    -4.0510 f          1 OOF      -0.170000
     23 O26          6.2380    -2.9780    -3.8990 o          1 OOF      -0.718000
     24 C27          1.6690     3.3310     2.9910 ca         1 OOF       0.130000
     25 C28          3.6240    -0.5890    -0.6410 ca         1 OOF      -0.168500
     26 C29          2.5250    -2.2900    -1.9710 ca         1 OOF      -0.168500
     27 C30          1.6270     3.7740     1.6610 ca         1 OOF      -0.109500
     28 C31          0.7380     2.3840     3.4430 ca         1 OOF      -0.109500
     29 Cl32         2.8730     3.9780     4.0960 cl         1 OOF      -0.197000
     30 C33         -1.0960    -2.7920     2.3090 c6         1 OOF      -0.074900
     31 C34         -3.0170    -1.1130     2.3120 c6         1 OOF      -0.074900
     32 C35         -3.9220    -2.1520     3.0210 c6         1 OOF      -0.072900
     33 C36         -2.0000    -3.8280     3.0220 c6         1 OOF      -0.072900
     34 C37         -3.0850    -3.1310     3.8770 c6         1 OOF      -0.076400
     35 H7          -0.3250    -0.4200     1.4690 h1         1 OOF       0.071700
     36 H8          -3.1010    -1.6970    -1.2470 ha         1 OOF       0.158000
     37 H9          -3.6820     3.0570    -2.7160 ha         1 OOF       0.145000
     38 HN10         1.4140    -0.2850     0.4690 hn         1 OOF       0.139000
     39 H18         -2.4440    -2.4020     0.6750 hc         1 OOF       0.075700
     40 H19          0.6380     3.6150    -0.2510 ha         1 OOF       0.134000
     41 H20         -0.9610     1.1610     2.9400 ha         1 OOF       0.134000
     42 H22          5.7200    -0.2750    -1.0280 ha         1 OOF       0.131500
     43 H23          3.7580    -3.3180    -3.4070 ha         1 OOF       0.131500
     44 H28          3.5950     0.1760     0.1320 ha         1 OOF       0.102000
     45 H29          1.6530    -2.8710    -2.2530 ha         1 OOF       0.102000
     46 H30          2.3390     4.5190     1.3150 ha         1 OOF       0.136000
     47 H31          0.7580     2.0580     4.4800 ha         1 OOF       0.136000
     48 H33         -0.3620    -3.3260     1.6890 hc         1 OOF       0.045450
     49 H33A        -0.5190    -2.2340     3.0600 hc         1 OOF       0.045450
     50 H34         -2.5440    -0.4740     3.0680 hc         1 OOF       0.045450
     51 H34A        -3.6470    -0.4580     1.6960 hc         1 OOF       0.045450
     52 H35         -4.6550    -1.6350     3.6550 hc         1 OOF       0.041200
     53 H35A        -4.4980    -2.7130     2.2720 hc         1 OOF       0.041200
     54 H36         -2.4770    -4.4790     2.2770 hc         1 OOF       0.041200
     55 H36A        -1.3880    -4.4810     3.6590 hc         1 OOF       0.041200
     56 H37         -2.6110    -2.5870     4.7060 hc         1 OOF       0.036700
     57 H37A        -3.7420    -3.8840     4.3320 hc         1 OOF       0.036700
     58 N10          1.2710    -0.9840    -0.2490 ns         1 OOF      -0.123000
     59 O15         -0.4250    -2.2770    -1.1550 o          1 OOF      -0.577100
     60 C14          6.2200    -2.1160    -3.0320 c          1 OOF       0.713600
@<TRIPOS>BOND
     1     1     2 1   
     2     1     4 1   
     3     1     7 1   
     4     2     3 2   
     5     2    11 1   
     6     3     5 1   
     7     4     5 ar  
     8     4     8 ar  
     9     5     9 ar  
    10     6     7 1   
    11     6    58 1   
    12     6    59 2   
    13     7    15 1   
    14     7    35 1   
    15     8    10 ar  
    16     8    36 1   
    17     9    12 ar  
    18     9    37 1   
    19    10    12 ar  
    20    10    21 1   
    21    11    16 ar  
    22    11    17 ar  
    23    12    22 1   
    24    13    19 ar  
    25    13    20 ar  
    26    13    60 1   
    27    14    60 1   
    28    15    30 1   
    29    15    31 1   
    30    15    39 1   
    31    16    27 ar  
    32    16    40 1   
    33    17    28 ar  
    34    17    41 1   
    35    18    25 ar  
    36    18    26 ar  
    37    18    58 1   
    38    19    25 ar  
    39    19    42 1   
    40    20    26 ar  
    41    20    43 1   
    42    23    60 1   
    43    24    27 ar  
    44    24    28 ar  
    45    24    29 1   
    46    25    44 1   
    47    26    45 1   
    48    27    46 1   
    49    28    47 1   
    50    30    33 1   
    51    30    48 1   
    52    30    49 1   
    53    31    32 1   
    54    31    50 1   
    55    31    51 1   
    56    32    34 1   
    57    32    52 1   
    58    32    53 1   
    59    33    34 1   
    60    33    54 1   
    61    33    55 1   
    62    34    56 1   
    63    34    57 1   
    64    38    58 1   
@<TRIPOS>SUBSTRUCTURE
     1 OOF         1 TEMP              0 ****  ****    0 ROOT
