@<TRIPOS>MOLECULE
OOG
   17    16     1     0     0
SMALL
No Charge or Current Charge


@<TRIPOS>ATOM
      1 C2           2.0290    -0.7770    -0.1100 c3         1 OOG      -0.200400
      2 C3           0.7280     0.0260     0.1360 c3         1 OOG      -0.050400
      3 C4          -0.4820    -0.8710     0.4870 c3         1 OOG      -0.188400
      4 C6          -2.7570     0.1500    -0.5530 c          1 OOG       0.638000
      5 O4          -3.2260     1.2640    -0.7790 o          1 OOG      -0.721000
      6 O3          -3.0340    -0.8380    -1.2300 o          1 OOG      -0.721000
      7 C5          -1.7540    -0.0270     0.7090 c          1 OOG       0.429100
      8 C1           3.1900     0.1780    -0.4460 c          1 OOG       0.713000
      9 O1           3.3680     0.4820    -1.6160 o          1 OOG      -0.760500
     10 O2           3.8540     0.6280     0.4750 o          1 OOG      -0.760500
     11 O5          -1.9760     0.4900     1.8080 o          1 OOG      -0.572100
     12 H21C         2.2310    -1.3130     0.8260 hc         1 OOG       0.009700
     13 H22C         1.8170    -1.4390    -0.9590 hc         1 OOG       0.009700
     14 H31C         0.8940     0.7410     0.9510 hc         1 OOG       0.038200
     15 H32C         0.4920     0.6150    -0.7600 hc         1 OOG       0.038200
     16 H41C        -0.6380    -1.5530    -0.3570 hc         1 OOG       0.048700
     17 H42C        -0.2540    -1.4360     1.3980 hc         1 OOG       0.048700
@<TRIPOS>BOND
     1     1     2 1   
     2     1     8 1   
     3     1    12 1   
     4     1    13 1   
     5     2     3 1   
     6     2    14 1   
     7     2    15 1   
     8     3     7 1   
     9     3    16 1   
    10     3    17 1   
    11     4     5 1   
    12     4     6 1   
    13     4     7 1   
    14     7    11 2   
    15     8     9 1   
    16     8    10 1   
@<TRIPOS>SUBSTRUCTURE
     1 OOG         1 TEMP              0 ****  ****    0 ROOT
