@<TRIPOS>MOLECULE
OOG
   17    16     1     0     0
SMALL
abcg2


@<TRIPOS>ATOM
      1 C2           2.0080    -0.7220    -0.0080 c3         1 OOG      -0.200400
      2 C3           0.8300     0.2390     0.0180 c3         1 OOG      -0.050400
      3 C4          -0.4950    -0.5050     0.0120 c3         1 OOG      -0.188400
      4 C6          -3.1060    -0.3390    -0.0240 c          1 OOG       0.638000
      5 O4          -4.0840     0.4060    -0.1760 o          1 OOG      -0.721000
      6 O3          -3.0830    -1.5760     0.0960 o          1 OOG      -0.721000
      7 C5          -1.7190     0.3690     0.0280 c          1 OOG       0.429100
      8 C1           3.4060    -0.0800    -0.0250 c          1 OOG       0.713000
      9 O1           3.4790     1.1650    -0.0240 o          1 OOG      -0.760500
     10 O2           4.3710    -0.8750    -0.0380 o          1 OOG      -0.760500
     11 O5          -1.6510     1.5760     0.0790 o          1 OOG      -0.572100
     12 H21C         1.9530    -1.3960     0.8560 hc         1 OOG       0.009700
     13 H22C         1.9270    -1.3800    -0.8810 hc         1 OOG       0.009700
     14 H31C         0.8930     0.8780     0.9030 hc         1 OOG       0.038200
     15 H32C         0.8830     0.9100    -0.8420 hc         1 OOG       0.038200
     16 H41C        -0.5660    -1.1640    -0.8610 hc         1 OOG       0.048700
     17 H42C        -0.5630    -1.1880     0.8670 hc         1 OOG       0.048700
@<TRIPOS>BOND
     1     1     2 1   
     2     1     8 1   
     3     1    12 1   
     4     1    13 1   
     5     2     3 1   
     6     2    14 1   
     7     2    15 1   
     8     3     7 1   
     9     3    16 1   
    10     3    17 1   
    11     4     5 1   
    12     4     6 1   
    13     4     7 1   
    14     7    11 2   
    15     8     9 1   
    16     8    10 1   
@<TRIPOS>SUBSTRUCTURE
     1 OOG         1 TEMP              0 ****  ****    0 ROOT
