@<TRIPOS>MOLECULE
OOH
   36    37     1     0     0
SMALL
bcc


@<TRIPOS>ATOM
      1 O6          23.2050    16.2880     6.0770 oh         1 OOH      -0.456100
      2 C           24.4660    16.6790     5.9200 ca         1 OOH       0.168100
      3 O           24.7600    14.6120     4.8640 oh         1 OOH      -0.466100
      4 C1          24.9640    17.8800     6.3540 ca         1 OOH      -0.241000
      5 C2          26.3140    18.2240     6.1480 ca         1 OOH       0.244100
      6 C3          27.1610    17.3360     5.4930 ca         1 OOH      -0.273600
      7 O1          27.1580    14.0620     3.9460 o          1 OOH      -0.565100
      8 C4          26.6450    16.0900     5.0460 ca         1 OOH      -0.202600
      9 O5          26.7160    19.4040     6.5990 oh         1 OOH      -0.495100
     10 C14         32.6580    19.7910     5.3260 c3         1 OOH      -0.094100
     11 C13         32.8650    19.8110     3.8180 c3         1 OOH      -0.071400
     12 C6          27.5170    15.1580     4.3680 c          1 OOH       0.562900
     13 C5          25.3170    15.7490     5.2480 ca         1 OOH       0.177100
     14 C8          29.4150    16.7280     4.5890 cc         1 OOH      -0.307400
     15 C7          28.9410    15.5410     4.1690 cd         1 OOH       0.113900
     16 C9          28.5530    17.6790     5.2760 c          1 OOH       0.627900
     17 O2          29.0230    18.7560     5.6660 o          1 OOH      -0.575100
     18 C10         30.8650    17.0870     4.4030 c          1 OOH       0.615300
     19 C11         31.1610    17.9800     3.2360 c3         1 OOH      -0.166400
     20 C12         32.5950    18.4860     3.1090 c3         1 OOH      -0.062400
     21 O3          31.6970    16.6090     5.1330 o          1 OOH      -0.493100
     22 O4          29.7060    14.6660     3.5450 oh         1 OOH      -0.459100
     23 H1          22.6880    16.9680     6.5280 ho         1 OOH       0.437000
     24 H2          25.4360    14.0620     4.4190 ho         1 OOH       0.470000
     25 H3          24.3180    18.5840     6.8670 ha         1 OOH       0.161000
     26 H4          27.6750    19.4920     6.3830 ho         1 OOH       0.485000
     27 H5          32.9290    20.7530     5.7650 hc         1 OOH       0.037700
     28 H6          31.6190    19.5960     5.5930 hc         1 OOH       0.037700
     29 H7          33.2720    19.0250     5.8010 hc         1 OOH       0.037700
     30 H8          33.8940    20.1100     3.6020 hc         1 OOH       0.033700
     31 H9          32.2290    20.5850     3.3770 hc         1 OOH       0.033700
     32 H10         30.4430    18.8080     3.2370 hc         1 OOH       0.065200
     33 H11         30.8860    17.3850     2.3550 hc         1 OOH       0.065200
     34 H12         33.2900    17.7220     3.4680 hc         1 OOH       0.047700
     35 H13         32.8140    18.6170     2.0470 hc         1 OOH       0.047700
     36 H14         29.1830    13.8840     3.3020 ho         1 OOH       0.460000
@<TRIPOS>BOND
     1     1     2 1   
     2     1    23 1   
     3     2     4 ar  
     4     2    13 ar  
     5     3    13 1   
     6     3    24 1   
     7     4     5 ar  
     8     4    25 1   
     9     5     6 ar  
    10     5     9 1   
    11     6     8 ar  
    12     6    16 1   
    13     7    12 2   
    14     8    12 1   
    15     8    13 ar  
    16     9    26 1   
    17    10    11 1   
    18    10    27 1   
    19    10    28 1   
    20    10    29 1   
    21    11    20 1   
    22    11    30 1   
    23    11    31 1   
    24    12    15 1   
    25    14    15 2   
    26    14    16 1   
    27    14    18 1   
    28    15    22 1   
    29    16    17 2   
    30    18    19 1   
    31    18    21 2   
    32    19    20 1   
    33    19    32 1   
    34    19    33 1   
    35    20    34 1   
    36    20    35 1   
    37    22    36 1   
@<TRIPOS>SUBSTRUCTURE
     1 OOH         1 TEMP              0 ****  ****    0 ROOT
