@<TRIPOS>MOLECULE
OOH
   36    37     1     0     0
SMALL
No Charge or Current Charge


@<TRIPOS>ATOM
      1 O6          23.5180    16.6480     6.7200 oh         1 OOH      -0.495100
      2 C           24.7480    16.9010     6.1690 ca         1 OOH       0.168100
      3 O           25.2470    14.5500     6.0600 oh         1 OOH      -0.505100
      4 C1          25.1300    18.2260     5.9430 ca         1 OOH      -0.223000
      5 C2          26.3780    18.5180     5.3860 ca         1 OOH       0.244100
      6 C3          27.2850    17.4840     5.0300 ca         1 OOH      -0.273600
      7 O1          27.5690    13.8470     5.1090 o          1 OOH      -0.565100
      8 C4          26.9000    16.1340     5.2610 ca         1 OOH      -0.202600
      9 O5          26.6840    19.8290     5.2010 oh         1 OOH      -0.534100
     10 C14         32.1550    18.6110     5.8170 c3         1 OOH      -0.094100
     11 C13         32.1730    19.6650     4.6900 c3         1 OOH      -0.071400
     12 C6          27.8470    15.0260     4.8920 c          1 OOH       0.562900
     13 C5          25.6300    15.8460     5.8320 ca         1 OOH       0.177100
     14 C8          29.5230    16.7160     3.9620 cc         1 OOH      -0.307400
     15 C7          29.1360    15.4000     4.2300 cd         1 OOH       0.113900
     16 C9          28.6440    17.8240     4.4300 c          1 OOH       0.627900
     17 O2          28.9730    18.9990     4.3880 o          1 OOH      -0.575100
     18 C10         30.8320    16.9950     3.2620 c          1 OOH       0.615300
     19 C11         31.1790    18.3550     2.6070 c3         1 OOH      -0.166400
     20 C12         32.3780    19.1030     3.2600 c3         1 OOH      -0.062400
     21 O3          31.6860    16.1280     3.1270 o          1 OOH      -0.493100
     22 O4          29.8570    14.2960     3.8840 oh         1 OOH      -0.498100
     23 H1          23.0640    17.5010     6.8790 ho         1 OOH       0.476000
     24 H2          26.0010    13.9760     5.7720 ho         1 OOH       0.509000
     25 H3          24.4620    19.0440     6.2010 ha         1 OOH       0.143000
     26 H4          27.6160    19.8380     4.8590 ho         1 OOH       0.524000
     27 H5          32.1520    19.1070     6.7950 hc         1 OOH       0.037700
     28 H6          31.2650    17.9780     5.7670 hc         1 OOH       0.037700
     29 H7          33.0430    17.9700     5.7650 hc         1 OOH       0.037700
     30 H8          32.9970    20.3590     4.8980 hc         1 OOH       0.033700
     31 H9          31.2570    20.2660     4.7260 hc         1 OOH       0.033700
     32 H10         30.3260    19.0270     2.5110 hc         1 OOH       0.065200
     33 H11         31.4970    18.1230     1.5830 hc         1 OOH       0.065200
     34 H12         33.2610    18.4510     3.2560 hc         1 OOH       0.047700
     35 H13         32.6320    19.9480     2.6080 hc         1 OOH       0.047700
     36 H14         29.3350    13.5180     4.1930 ho         1 OOH       0.499000
@<TRIPOS>BOND
     1     1     2 1   
     2     1    23 1   
     3     2     4 ar  
     4     2    13 ar  
     5     3    13 1   
     6     3    24 1   
     7     4     5 ar  
     8     4    25 1   
     9     5     6 ar  
    10     5     9 1   
    11     6     8 ar  
    12     6    16 1   
    13     7    12 2   
    14     8    12 1   
    15     8    13 ar  
    16     9    26 1   
    17    10    11 1   
    18    10    27 1   
    19    10    28 1   
    20    10    29 1   
    21    11    20 1   
    22    11    30 1   
    23    11    31 1   
    24    12    15 1   
    25    14    15 2   
    26    14    16 1   
    27    14    18 1   
    28    15    22 1   
    29    16    17 2   
    30    18    19 1   
    31    18    21 2   
    32    19    20 1   
    33    19    32 1   
    34    19    33 1   
    35    20    34 1   
    36    20    35 1   
    37    22    36 1   
@<TRIPOS>SUBSTRUCTURE
     1 OOH         1 TEMP              0 ****  ****    0 ROOT
