@<TRIPOS>MOLECULE
OOJ
   48    51     1     0     0
SMALL
abcg2


@<TRIPOS>ATOM
      1 C2          -0.1210    10.1650    14.0820 c3         1 OOJ       0.343300
      2 C5          -1.4140    10.5400    13.4150 ca         1 OOJ      -0.160300
      3 C6          -2.5290    10.7520    14.2230 ca         1 OOJ      -0.085000
      4 C7          -3.7360    11.1250    13.6330 ca         1 OOJ      -0.017000
      5 C8          -3.8030    11.2740    12.2420 ca         1 OOJ      -0.135000
      6 C12         -5.0720    11.4560    15.7020 c          1 OOJ       0.667100
      7 C15         -6.7680    11.8370    17.3990 cc         1 OOJ       0.533300
      8 C18         -7.0900    12.0740    19.7420 cc         1 OOJ       0.450700
      9 C21         -5.0940    12.5260    23.3080 cc         1 OOJ       0.230400
     10 N22         -5.6960    13.5540    23.9240 nc         1 OOJ      -0.372600
     11 C23         -5.5180    13.6840    25.2340 cd         1 OOJ       0.095000
     12 C24         -6.1350    14.7490    25.9380 cd         1 OOJ      -0.144000
     13 C30         -4.0700    11.6900    25.3460 c          1 OOJ       0.524000
     14 C32         -4.3100    11.5980    23.9550 cd         1 OOJ      -0.401200
     15 F1           0.7850     9.6620    13.2190 f          1 OOJ      -0.110667
     16 F3          -0.2930     9.2390    15.0530 f          1 OOJ      -0.110667
     17 F4           0.4720    11.2300    14.6830 f          1 OOJ      -0.110667
     18 C9          -2.6840    11.0590    11.4570 ca         1 OOJ      -0.085000
     19 C10         -1.4730    10.6920    12.0360 ca         1 OOJ      -0.083000
     20 N11         -4.9200    11.3440    14.3520 ns         1 OOJ      -0.147000
     21 O13         -4.1700    11.3570    16.5260 o          1 OOJ      -0.597100
     22 N14         -6.3760    11.7020    16.0920 ns         1 OOJ      -0.485400
     23 N16         -8.0170    12.0200    17.7180 nd         1 OOJ      -0.389000
     24 N17         -8.1980    12.1640    19.0710 nd         1 OOJ      -0.280000
     25 S19         -7.0840    12.1510    21.4900 ss         1 OOJ      -0.248300
     26 C20         -5.3010    12.4300    21.8230 c3         1 OOJ       0.069800
     27 C25         -5.9570    14.9030    27.2790 cc         1 OOJ      -0.034000
     28 C26         -5.1430    13.9970    28.0120 cc         1 OOJ      -0.144300
     29 C28         -4.5590    12.9780    27.3270 cd         1 OOJ      -0.067000
     30 N29         -4.7350    12.8130    25.9730 n          1 OOJ       0.011200
     31 O31         -3.3840    10.9420    26.0370 o          1 OOJ      -0.536000
     32 S33         -5.6720    11.8050    18.7500 ss         1 OOJ      -0.195800
     33 H1          -2.4650    10.6250    15.2900 ha         1 OOJ       0.165000
     34 H2          -4.7420    11.5590    11.7840 ha         1 OOJ       0.117000
     35 H3          -6.7470    15.4240    25.3590 ha         1 OOJ       0.154000
     36 H4          -4.2850    13.3910    29.8870 hc         1 OOJ       0.050033
     37 H5          -4.5010    15.1400    29.7060 hc         1 OOJ       0.050033
     38 H6          -5.8970    14.1150    30.0130 hc         1 OOJ       0.050033
     39 H7          -3.8490    10.7810    23.4200 ha         1 OOJ       0.220000
     40 H9          -2.7540    11.1780    10.3840 ha         1 OOJ       0.126000
     41 H10         -0.6000    10.5250    11.4230 ha         1 OOJ       0.137000
     42 H11         -5.7390    11.4930    13.7820 hn         1 OOJ       0.157000
     43 H12         -7.1180    11.7750    15.4080 hn         1 OOJ       0.343500
     44 H13         -4.7260    11.6020    21.4160 h1         1 OOJ       0.087700
     45 H14         -5.0080    13.3640    21.3440 h1         1 OOJ       0.087700
     46 H15         -6.4370    15.7230    27.7980 ha         1 OOJ       0.130000
     47 H16         -3.9260    12.2360    27.7850 h4         1 OOJ       0.173000
     48 C27         -4.9410    14.1640    29.4880 c3         1 OOJ      -0.037800
@<TRIPOS>BOND
     1     1     2 1   
     2     1    15 1   
     3     1    16 1   
     4     1    17 1   
     5     2     3 ar  
     6     2    19 ar  
     7     3     4 ar  
     8     3    33 1   
     9     4     5 ar  
    10     4    20 1   
    11     5    18 ar  
    12     5    34 1   
    13     6    20 1   
    14     6    21 2   
    15     6    22 1   
    16     7    22 1   
    17     7    23 2   
    18     7    32 1   
    19     8    24 2   
    20     8    25 1   
    21     8    32 1   
    22     9    10 1   
    23     9    14 2   
    24     9    26 1   
    25    10    11 2   
    26    11    12 1   
    27    11    30 1   
    28    12    27 2   
    29    12    35 1   
    30    13    14 1   
    31    13    30 1   
    32    13    31 2   
    33    14    39 1   
    34    18    19 ar  
    35    18    40 1   
    36    19    41 1   
    37    20    42 1   
    38    22    43 1   
    39    23    24 1   
    40    25    26 1   
    41    26    44 1   
    42    26    45 1   
    43    27    28 1   
    44    27    46 1   
    45    28    29 2   
    46    28    48 1   
    47    29    30 1   
    48    29    47 1   
    49    36    48 1   
    50    37    48 1   
    51    38    48 1   
@<TRIPOS>SUBSTRUCTURE
     1 OOJ         1 TEMP              0 ****  ****    0 ROOT
