@<TRIPOS>MOLECULE
OOJ
   48    51     1     0     0
SMALL
No Charge or Current Charge


@<TRIPOS>ATOM
      1 C2           0.2240    11.3680    13.4390 c3         1 OOJ       0.343300
      2 C5          -1.2250    11.1600    12.9770 ca         1 OOJ      -0.160300
      3 C6          -2.2780    11.2130    13.9180 ca         1 OOJ      -0.085000
      4 C7          -3.6210    11.0340    13.5160 ca         1 OOJ      -0.017000
      5 C8          -3.9000    10.8070    12.1560 ca         1 OOJ      -0.135000
      6 C12         -4.8090    11.2380    15.7870 c          1 OOJ       0.667100
      7 C15         -6.5790    11.3450    17.5160 cc         1 OOJ       0.533300
      8 C18         -7.1470    11.5900    19.7880 cc         1 OOJ       0.450700
      9 C21         -5.4990    12.1560    23.5990 cc         1 OOJ       0.230400
     10 N22         -5.1780    13.4230    24.0520 nc         1 OOJ      -0.372600
     11 C23         -5.1110    13.6200    25.3690 cd         1 OOJ       0.095000
     12 C24         -4.7730    14.9620    25.7630 cd         1 OOJ      -0.144000
     13 C30         -5.6750    11.3110    25.9410 c          1 OOJ       0.524000
     14 C32         -5.7370    11.1370    24.4930 cd         1 OOJ      -0.401200
     15 F1           1.1300    10.9020    12.5480 f          1 OOJ      -0.110667
     16 F3           0.4770    10.7380    14.6090 f          1 OOJ      -0.110667
     17 F4           0.4960    12.6780    13.6290 f          1 OOJ      -0.110667
     18 C9          -2.8620    10.7610    11.2110 ca         1 OOJ      -0.085000
     19 C10         -1.5310    10.9380    11.6170 ca         1 OOJ      -0.083000
     20 N11         -4.7270    11.0730    14.4120 ns         1 OOJ      -0.147000
     21 O13         -3.8480    11.3830    16.5240 o          1 OOJ      -0.597100
     22 N14         -6.1050    11.2160    16.2340 ns         1 OOJ      -0.485400
     23 N16         -7.8890    11.2920    17.7110 nd         1 OOJ      -0.389000
     24 N17         -8.2280    11.4360    19.0460 nd         1 OOJ      -0.280000
     25 S19         -7.3220    11.7920    21.5290 ss         1 OOJ      -0.248300
     26 C20         -5.5700    11.9700    22.1050 c3         1 OOJ       0.069800
     27 C25         -4.6760    15.2800    27.0960 cc         1 OOJ      -0.034000
     28 C26         -4.9080    14.2870    28.0930 cc         1 OOJ      -0.144300
     29 C28         -5.2290    13.0150    27.6690 cd         1 OOJ      -0.067000
     30 N29         -5.3460    12.6190    26.3260 n          1 OOJ       0.011200
     31 O31         -5.8920    10.3930    26.7230 o          1 OOJ      -0.536000
     32 S33         -5.6270    11.5780    18.9610 ss         1 OOJ      -0.195800
     33 H1          -2.0310    11.4000    14.9590 ha         1 OOJ       0.165000
     34 H2          -4.9270    10.6680    11.8240 ha         1 OOJ       0.117000
     35 H3          -4.5940    15.7260    25.0130 ha         1 OOJ       0.154000
     36 H4          -4.9930    13.8270    30.2060 hc         1 OOJ       0.050033
     37 H5          -3.7840    15.0460    29.7690 hc         1 OOJ       0.050033
     38 H6          -5.5060    15.4720    29.7930 hc         1 OOJ       0.050033
     39 H7          -5.9930    10.1380    24.1630 ha         1 OOJ       0.220000
     40 H9          -3.0900    10.5890    10.1620 ha         1 OOJ       0.126000
     41 H10         -0.7420    10.9050    10.8680 ha         1 OOJ       0.137000
     42 H11         -5.6200    10.9590    13.9520 hn         1 OOJ       0.157000
     43 H12         -6.8070    11.0880    15.5210 hn         1 OOJ       0.343500
     44 H13         -5.0040    11.0710    21.8310 h1         1 OOJ       0.087700
     45 H14         -5.1100    12.8320    21.6040 h1         1 OOJ       0.087700
     46 H15         -4.4210    16.2900    27.4030 ha         1 OOJ       0.130000
     47 H16         -5.4220    12.2020    28.3600 h4         1 OOJ       0.173000
     48 C27         -4.7920    14.6780    29.5430 c3         1 OOJ      -0.037800
@<TRIPOS>BOND
     1     1     2 1   
     2     1    15 1   
     3     1    16 1   
     4     1    17 1   
     5     2     3 ar  
     6     2    19 ar  
     7     3     4 ar  
     8     3    33 1   
     9     4     5 ar  
    10     4    20 1   
    11     5    18 ar  
    12     5    34 1   
    13     6    20 1   
    14     6    21 2   
    15     6    22 1   
    16     7    22 1   
    17     7    23 2   
    18     7    32 1   
    19     8    24 2   
    20     8    25 1   
    21     8    32 1   
    22     9    10 1   
    23     9    14 2   
    24     9    26 1   
    25    10    11 2   
    26    11    12 1   
    27    11    30 1   
    28    12    27 2   
    29    12    35 1   
    30    13    14 1   
    31    13    30 1   
    32    13    31 2   
    33    14    39 1   
    34    18    19 ar  
    35    18    40 1   
    36    19    41 1   
    37    20    42 1   
    38    22    43 1   
    39    23    24 1   
    40    25    26 1   
    41    26    44 1   
    42    26    45 1   
    43    27    28 1   
    44    27    46 1   
    45    28    29 2   
    46    28    48 1   
    47    29    30 1   
    48    29    47 1   
    49    36    48 1   
    50    37    48 1   
    51    38    48 1   
@<TRIPOS>SUBSTRUCTURE
     1 OOJ         1 TEMP              0 ****  ****    0 ROOT
