@<TRIPOS>MOLECULE
OOK
   60    64     1     0     0
SMALL
bcc


@<TRIPOS>ATOM
      1 N1           1.7990     0.5470    -0.0790 na         1 OOK      -0.130300
      2 C2           1.5110     1.8890    -0.1120 cc         1 OOK       0.466400
      3 N3           2.1780     2.5800     0.7660 nd         1 OOK      -0.557100
      4 C4           2.7240     0.3770     0.9270 ca         1 OOK      -0.052200
      5 C5           2.9530     1.6670     1.4290 ca         1 OOK       0.069400
      6 C6           0.0680    -1.1190     0.1290 c          1 OOK       0.658100
      7 N7          -1.2150    -0.7670    -0.1140 ns         1 OOK      -0.459100
      8 C8          -2.2860    -1.2100     0.6760 ca         1 OOK      -0.095400
      9 C9           1.0790    -0.4780    -0.8220 c3         1 OOK      -0.024000
     10 C10          3.3790    -0.7380     1.4440 ca         1 OOK      -0.121000
     11 C11         -3.0350    -0.3210     1.4350 ca         1 OOK       0.130400
     12 C12         -2.6590    -2.5470     0.7320 ca         1 OOK       0.130400
     13 C13         -4.4450    -2.0680     2.2470 ca         1 OOK      -0.085600
     14 C14          3.8680     1.8820     2.4610 ca         1 OOK      -0.093000
     15 C15         -5.6220    -2.5340     3.1040 c          1 OOK       0.924200
     16 C16          4.2750    -0.5010     2.4570 ca         1 OOK       0.104900
     17 C17          0.5320     2.4780    -1.0380 ca         1 OOK      -0.119900
     18 C18          4.5190     0.7830     2.9570 ca         1 OOK       0.073900
     19 C19         -3.7120    -2.9880     1.5040 ca         1 OOK      -0.150500
     20 C20         -4.1040    -0.7200     2.2060 ca         1 OOK      -0.150500
     21 O22         -5.8610    -3.7540     3.0920 o          1 OOK      -0.809300
     22 C23          1.9690    -1.5090    -1.5180 c6         1 OOK      -0.062700
     23 C24         -0.5950     3.1130    -0.5260 ca         1 OOK      -0.089000
     24 C25          0.7220     2.4320    -2.4180 ca         1 OOK      -0.089000
     25 F26         -1.9670    -3.4210    -0.0040 f          1 OOK      -0.159900
     26 F27         -2.6890     0.9710     1.3960 f          1 OOK      -0.159900
     27 F28          4.9410    -1.5250     3.0050 f          1 OOK      -0.130900
     28 F29          5.4110     0.9130     3.9480 f          1 OOK      -0.134900
     29 O30         -6.2280    -1.6470     3.7310 o          1 OOK      -0.809300
     30 C31         -1.3240     3.6200    -2.7460 ca         1 OOK       0.037400
     31 C32         -0.2030     3.0000    -3.2770 ca         1 OOK      -0.128000
     32 C33         -1.5280     3.6850    -1.3770 ca         1 OOK      -0.128000
     33 CL34        -2.4870     4.3250    -3.8130 cl         1 OOK      -0.109400
     34 C35          1.0990    -2.4190    -2.3910 c6         1 OOK      -0.075400
     35 C36          3.0500    -0.8250    -2.3560 c6         1 OOK      -0.075400
     36 C37          1.9460    -3.4270    -3.1620 c6         1 OOK      -0.072900
     37 C38          3.8880    -1.8400    -3.1240 c6         1 OOK      -0.072900
     38 C39          3.0160    -2.7340    -3.9970 c6         1 OOK      -0.076400
     39 HN7         -1.4150    -0.1180    -0.8600 hn         1 OOK       0.319500
     40 H9           0.5390     0.0450    -1.6130 h1         1 OOK       0.071700
     41 H10          3.2070    -1.7490     1.1060 ha         1 OOK       0.172000
     42 H14          4.0560     2.8720     2.8560 ha         1 OOK       0.163000
     43 H19         -3.9710    -4.0380     1.5200 ha         1 OOK       0.173000
     44 H20         -4.6630     0.0050     2.7800 ha         1 OOK       0.173000
     45 H23          2.4550    -2.1440    -0.7710 hc         1 OOK       0.074700
     46 H24         -0.7520     3.1610     0.5430 ha         1 OOK       0.152500
     47 H25          1.6050     1.9620    -2.8310 ha         1 OOK       0.152500
     48 H32         -0.0450     2.9630    -4.3460 ha         1 OOK       0.152000
     49 H33         -2.4060     4.1710    -0.9730 ha         1 OOK       0.152000
     50 H35          0.3660    -2.9510    -1.7800 hc         1 OOK       0.046700
     51 H35A         0.5320    -1.8040    -3.1000 hc         1 OOK       0.046700
     52 H36          2.5740    -0.1410    -3.0680 hc         1 OOK       0.046700
     53 H36A         3.6980    -0.2160    -1.7230 hc         1 OOK       0.046700
     54 H37          2.4270    -4.1110    -2.4540 hc         1 OOK       0.041700
     55 H37A         1.3000    -4.0380    -3.7950 hc         1 OOK       0.041700
     56 H38          4.6310    -1.3180    -3.7310 hc         1 OOK       0.041700
     57 H38A         4.4460    -2.4590    -2.4120 hc         1 OOK       0.041700
     58 H39          3.6310    -3.4750    -4.5140 hc         1 OOK       0.036200
     59 H39A         2.5380    -2.1280    -4.7740 hc         1 OOK       0.036200
     60 O21          0.4060    -1.8500     1.0360 o          1 OOK      -0.557100
@<TRIPOS>BOND
     1     1     2 1   
     2     1     4 1   
     3     1     9 1   
     4     2     3 2   
     5     2    17 1   
     6     3     5 1   
     7     4     5 ar  
     8     4    10 ar  
     9     5    14 ar  
    10     6     7 1   
    11     6     9 1   
    12     6    60 2   
    13     7     8 1   
    14     7    39 1   
    15     8    11 ar  
    16     8    12 ar  
    17     9    22 1   
    18     9    40 1   
    19    10    16 ar  
    20    10    41 1   
    21    11    20 ar  
    22    11    26 1   
    23    12    19 ar  
    24    12    25 1   
    25    13    15 1   
    26    13    19 ar  
    27    13    20 ar  
    28    14    18 ar  
    29    14    42 1   
    30    15    21 1   
    31    15    29 1   
    32    16    18 ar  
    33    16    27 1   
    34    17    23 ar  
    35    17    24 ar  
    36    18    28 1   
    37    19    43 1   
    38    20    44 1   
    39    22    34 1   
    40    22    35 1   
    41    22    45 1   
    42    23    32 ar  
    43    23    46 1   
    44    24    31 ar  
    45    24    47 1   
    46    30    31 ar  
    47    30    32 ar  
    48    30    33 1   
    49    31    48 1   
    50    32    49 1   
    51    34    36 1   
    52    34    50 1   
    53    34    51 1   
    54    35    37 1   
    55    35    52 1   
    56    35    53 1   
    57    36    38 1   
    58    36    54 1   
    59    36    55 1   
    60    37    38 1   
    61    37    56 1   
    62    37    57 1   
    63    38    58 1   
    64    38    59 1   
@<TRIPOS>SUBSTRUCTURE
     1 OOK         1 TEMP              0 ****  ****    0 ROOT
