@<TRIPOS>MOLECULE
OOK
   60    64     1     0     0
SMALL
No Charge or Current Charge


@<TRIPOS>ATOM
      1 N1           1.8630     0.5470    -0.0950 na         1 OOK      -0.159600
      2 C2           1.5060     1.9090    -0.1340 cc         1 OOK       0.466400
      3 N3           2.1630     2.6140     0.8070 nd         1 OOK      -0.557100
      4 C4           2.7830     0.4180     0.9180 ca         1 OOK      -0.052200
      5 C5           2.9590     1.6720     1.4410 ca         1 OOK       0.069400
      6 C6           0.2220    -1.3100     0.2320 c          1 OOK       0.591100
      7 N7          -1.0850    -0.8360     0.1840 ns         1 OOK      -0.133000
      8 C8          -2.2600    -1.2620     0.8670 ca         1 OOK      -0.188000
      9 C9           1.1780    -0.6010    -0.7560 c3         1 OOK       0.005300
     10 C10          3.4620    -0.7020     1.4330 ca         1 OOK      -0.103000
     11 C11         -3.1540    -0.2870     1.3460 ca         1 OOK       0.165500
     12 C12         -2.5890    -2.6230     1.0470 ca         1 OOK       0.165500
     13 C13         -4.6510    -2.0130     2.2280 ca         1 OOK      -0.085600
     14 C14          3.8420     1.9000     2.5050 ca         1 OOK      -0.075000
     15 C15         -5.9250    -2.4130     2.9610 c          1 OOK       0.713600
     16 C16          4.3570    -0.4950     2.5010 ca         1 OOK       0.140000
     17 C17          0.4670     2.4900    -0.9940 ca         1 OOK      -0.119900
     18 C18          4.5490     0.8020     3.0340 ca         1 OOK       0.109000
     19 C19         -3.7640    -2.9920     1.7220 ca         1 OOK      -0.132500
     20 C20         -4.3270    -0.6520     2.0230 ca         1 OOK      -0.132500
     21 O22         -6.1630    -3.6040     3.1110 o          1 OOK      -0.704000
     22 C23          2.0740    -1.5800    -1.6010 c6         1 OOK      -0.062700
     23 C24         -0.4490     3.4190    -0.4540 ca         1 OOK      -0.071000
     24 C25          0.4210     2.2170    -2.3800 ca         1 OOK      -0.071000
     25 F26         -1.8130    -3.5990     0.5250 f          1 OOK      -0.195000
     26 F27         -2.8770     1.0250     1.1660 f          1 OOK      -0.195000
     27 F28          5.0280    -1.5500     3.0190 f          1 OOK      -0.166000
     28 F29          5.4070     0.9960     4.0630 f          1 OOK      -0.170000
     29 O30         -6.6640    -1.5300     3.3740 o          1 OOK      -0.704000
     30 C31         -1.4910     3.7020    -2.6330 ca         1 OOK       0.129000
     31 C32         -0.5610     2.8120    -3.1920 ca         1 OOK      -0.110000
     32 C33         -1.4310     4.0110    -1.2670 ca         1 OOK      -0.110000
     33 Cl34        -2.7170     4.4450    -3.6510 cl         1 OOK      -0.201000
     34 C35          1.2040    -2.4870    -2.5220 c6         1 OOK      -0.075400
     35 C36          3.1530    -0.8410    -2.4490 c6         1 OOK      -0.075400
     36 C37          2.0740    -3.4800    -3.3330 c6         1 OOK      -0.072900
     37 C38          4.0230    -1.8370    -3.2560 c6         1 OOK      -0.072900
     38 C39          3.1490    -2.7370    -4.1610 c6         1 OOK      -0.076400
     39 HN7         -1.2270    -0.0460    -0.4340 hn         1 OOK       0.153000
     40 H9           0.5080    -0.1600    -1.5000 h1         1 OOK       0.071700
     41 H10          3.3140    -1.7040     1.0480 ha         1 OOK       0.154000
     42 H14          3.9750     2.8970     2.9150 ha         1 OOK       0.145000
     43 H19         -3.9890    -4.0490     1.8390 ha         1 OOK       0.155000
     44 H20         -4.9870     0.1320     2.3870 ha         1 OOK       0.155000
     45 H23          2.5960    -2.2390    -0.8970 hc         1 OOK       0.074700
     46 H24         -0.4110     3.6700     0.6050 ha         1 OOK       0.134500
     47 H25          1.1520     1.5570    -2.8360 ha         1 OOK       0.134500
     48 H32         -0.5960     2.5890    -4.2560 ha         1 OOK       0.134000
     49 H33         -2.1430     4.7120    -0.8380 ha         1 OOK       0.134000
     50 H35          0.4770    -3.0540    -1.9250 hc         1 OOK       0.046700
     51 H35A         0.6190    -1.8660    -3.2150 hc         1 OOK       0.046700
     52 H36          2.6730    -0.1400    -3.1430 hc         1 OOK       0.046700
     53 H36A         3.8090    -0.2430    -1.8020 hc         1 OOK       0.046700
     54 H37          2.5580    -4.1910    -2.6490 hc         1 OOK       0.041700
     55 H37A         1.4350    -4.0750    -4.0000 hc         1 OOK       0.041700
     56 H38          4.7490    -1.2860    -3.8690 hc         1 OOK       0.041700
     57 H38A         4.6080    -2.4610    -2.5660 hc         1 OOK       0.041700
     58 H39          3.7830    -3.4640    -4.6870 hc         1 OOK       0.036200
     59 H39A         2.6650    -2.1260    -4.9350 hc         1 OOK       0.036200
     60 O21          0.5950    -2.1930     0.9980 o          1 OOK      -0.557100
@<TRIPOS>BOND
     1     1     2 1   
     2     1     4 1   
     3     1     9 1   
     4     2     3 2   
     5     2    17 1   
     6     3     5 1   
     7     4     5 ar  
     8     4    10 ar  
     9     5    14 ar  
    10     6     7 1   
    11     6     9 1   
    12     6    60 2   
    13     7     8 1   
    14     7    39 1   
    15     8    11 ar  
    16     8    12 ar  
    17     9    22 1   
    18     9    40 1   
    19    10    16 ar  
    20    10    41 1   
    21    11    20 ar  
    22    11    26 1   
    23    12    19 ar  
    24    12    25 1   
    25    13    15 1   
    26    13    19 ar  
    27    13    20 ar  
    28    14    18 ar  
    29    14    42 1   
    30    15    21 1   
    31    15    29 1   
    32    16    18 ar  
    33    16    27 1   
    34    17    23 ar  
    35    17    24 ar  
    36    18    28 1   
    37    19    43 1   
    38    20    44 1   
    39    22    34 1   
    40    22    35 1   
    41    22    45 1   
    42    23    32 ar  
    43    23    46 1   
    44    24    31 ar  
    45    24    47 1   
    46    30    31 ar  
    47    30    32 ar  
    48    30    33 1   
    49    31    48 1   
    50    32    49 1   
    51    34    36 1   
    52    34    50 1   
    53    34    51 1   
    54    35    37 1   
    55    35    52 1   
    56    35    53 1   
    57    36    38 1   
    58    36    54 1   
    59    36    55 1   
    60    37    38 1   
    61    37    56 1   
    62    37    57 1   
    63    38    58 1   
    64    38    59 1   
@<TRIPOS>SUBSTRUCTURE
     1 OOK         1 TEMP              0 ****  ****    0 ROOT
