@<TRIPOS>MOLECULE
OOL
   21    21     1     0     0
SMALL
abcg2


@<TRIPOS>ATOM
      1 N1           6.0770    -4.8870    19.5440 n2         1 OOL      -0.705100
      2 C4          10.1550    -1.1890    22.2390 c3         1 OOL       0.161400
      3 C5           6.9320    -3.3830    21.2790 ca         1 OOL       0.100700
      4 C6           6.9980    -4.1490    20.0040 ce         1 OOL       0.361200
      5 N            8.0090    -2.6630    21.5810 nb         1 OOL      -0.279000
      6 C3           7.9560    -1.9720    22.7240 ca         1 OOL       0.372300
      7 O1           8.9980    -1.2230    23.0950 os         1 OOL      -0.457800
      8 C2           6.8460    -1.9990    23.5590 ca         1 OOL      -0.265000
      9 N2           5.8180    -3.4840    21.9980 nb         1 OOL      -0.279000
     10 C1           5.7820    -2.7910    23.1350 ca         1 OOL       0.372300
     11 O            4.6970    -2.8410    23.9110 os         1 OOL      -0.457800
     12 C            3.5920    -3.6620    23.4860 c3         1 OOL       0.161400
     13 H1           5.2770    -4.8770    20.1850 hn         1 OOL       0.397400
     14 H2          10.8520    -0.5180    22.7340 h1         1 OOL       0.052867
     15 H3          10.5880    -2.1840    22.1430 h1         1 OOL       0.052867
     16 H4           9.8920    -0.8060    21.2540 h1         1 OOL       0.052867
     17 H5           7.9310    -4.0370    19.4540 h4         1 OOL       0.038800
     18 H6           6.8110    -1.4410    24.4830 ha         1 OOL       0.160000
     19 H7           2.8420    -3.5480    24.2640 h1         1 OOL       0.052867
     20 H8           3.2050    -3.3150    22.5290 h1         1 OOL       0.052867
     21 H9           3.9010    -4.7030    23.4030 h1         1 OOL       0.052867
@<TRIPOS>BOND
     1     1     4 2   
     2     1    13 1   
     3     2     7 1   
     4     2    14 1   
     5     2    15 1   
     6     2    16 1   
     7     3     4 1   
     8     3     5 ar  
     9     3     9 ar  
    10     4    17 1   
    11     5     6 ar  
    12     6     7 1   
    13     6     8 ar  
    14     8    10 ar  
    15     8    18 1   
    16     9    10 ar  
    17    10    11 1   
    18    11    12 1   
    19    12    19 1   
    20    12    20 1   
    21    12    21 1   
@<TRIPOS>SUBSTRUCTURE
     1 OOL         1 TEMP              0 ****  ****    0 ROOT
