@<TRIPOS>MOLECULE
OOL
   21    21     1     0     0
SMALL
No Charge or Current Charge


@<TRIPOS>ATOM
      1 N1           6.0400    -4.9390    19.5010 n2         1 OOL      -0.705100
      2 C4          10.2380    -1.1070    22.3010 c3         1 OOL       0.161400
      3 C5           6.9430    -3.4220    21.2100 ca         1 OOL       0.100700
      4 C6           7.0150    -4.1930    19.9220 ce         1 OOL       0.361200
      5 N            8.0260    -2.6820    21.5360 nb         1 OOL      -0.279000
      6 C3           7.9770    -1.9840    22.6900 ca         1 OOL       0.372300
      7 O1           9.0380    -1.2050    23.0960 os         1 OOL      -0.457800
      8 C2           6.8490    -2.0290    23.5120 ca         1 OOL      -0.265000
      9 N2           5.8140    -3.5170    21.9530 nb         1 OOL      -0.279000
     10 C1           5.7690    -2.8180    23.1060 ca         1 OOL       0.372300
     11 O            4.6600    -2.8570    23.9220 os         1 OOL      -0.457800
     12 C            3.5060    -3.6480    23.5720 c3         1 OOL       0.161400
     13 H1           5.2700    -4.8920    20.1860 hn         1 OOL       0.397400
     14 H2          10.9650    -0.4440    22.7860 h1         1 OOL       0.052867
     15 H3          10.7070    -2.0920    22.1770 h1         1 OOL       0.052867
     16 H4          10.0170    -0.6990    21.3060 h1         1 OOL       0.052867
     17 H5           7.9380    -4.0970    19.3440 h4         1 OOL       0.038800
     18 H6           6.8120    -1.4680    24.4390 ha         1 OOL       0.160000
     19 H7           2.7290    -3.5520    24.3410 h1         1 OOL       0.052867
     20 H8           3.0790    -3.3180    22.6160 h1         1 OOL       0.052867
     21 H9           3.7690    -4.7100    23.4880 h1         1 OOL       0.052867
@<TRIPOS>BOND
     1     1     4 2   
     2     1    13 1   
     3     2     7 1   
     4     2    14 1   
     5     2    15 1   
     6     2    16 1   
     7     3     4 1   
     8     3     5 ar  
     9     3     9 ar  
    10     4    17 1   
    11     5     6 ar  
    12     6     7 1   
    13     6     8 ar  
    14     8    10 ar  
    15     8    18 1   
    16     9    10 ar  
    17    10    11 1   
    18    11    12 1   
    19    12    19 1   
    20    12    20 1   
    21    12    21 1   
@<TRIPOS>SUBSTRUCTURE
     1 OOL         1 TEMP              0 ****  ****    0 ROOT
