@<TRIPOS>MOLECULE
OOM
   55    58     1     0     0
SMALL
bcc


@<TRIPOS>ATOM
      1 C1           4.6800     4.2640     1.2160 c3         1 OOM      -0.080433
      2 C2           4.9820     3.5230    -0.0920 c3         1 OOM      -0.072300
      3 C3           4.4570     4.3470    -1.2740 c3         1 OOM      -0.080433
      4 C4           6.4920     3.3410    -0.2330 c3         1 OOM      -0.080433
      5 C5           4.2790     2.1910    -0.0700 cc         1 OOM       0.344600
      6 C6           2.8820     1.9750    -0.0490 cc         1 OOM      -0.308300
      7 C7           2.7490     0.6080    -0.0170 cd         1 OOM       0.056300
      8 C11         -0.6350    -0.9570     0.0830 c3         1 OOM      -0.119300
      9 C18         -5.4550    -0.5360    -0.0410 ca         1 OOM      -0.058200
     10 C19         -6.2750    -0.3410    -1.1450 ca         1 OOM      -0.061500
     11 C21         -7.2210     1.5970    -0.0770 ca         1 OOM       0.163100
     12 C23         -6.3890     1.3960     1.0230 ca         1 OOM      -0.190500
     13 C24         -5.5140     0.3240     1.0450 ca         1 OOM      -0.061500
     14 C27          4.3910    -1.2690     0.0120 ca         1 OOM       0.008800
     15 C30          5.1710    -3.9300     0.0270 ca         1 OOM      -0.123000
     16 C31          5.6790    -3.0590    -0.9300 ca         1 OOM      -0.118500
     17 C32          5.2870    -1.7300    -0.9460 ca         1 OOM      -0.127500
     18 N8           1.6450    -0.2270    -0.0460 ns         1 OOM      -0.460100
     19 C9           0.3680     0.1700     0.1670 c          1 OOM       0.690100
     20 O10          0.0370     1.3100     0.4140 o          1 OOM      -0.554100
     21 S12         -2.2720    -0.1950     0.2380 ss         1 OOM      -0.154400
     22 C13         -3.2170    -1.6350     0.0730 cc         1 OOM       0.464800
     23 N14         -2.8130    -2.8810     0.0070 nd         1 OOM      -0.412000
     24 N15         -3.9190    -3.6160    -0.1400 nd         1 OOM      -0.038000
     25 N16         -4.9600    -2.8930    -0.1580 nc         1 OOM      -0.185800
     26 N17         -4.5540    -1.6290    -0.0270 na         1 OOM       0.029500
     27 C20         -7.1600     0.7190    -1.1610 ca         1 OOM      -0.190500
     28 O22         -8.0950     2.6110    -0.1490 oh         1 OOM      -0.484100
     29 N25          4.0020     0.0880    -0.0030 na         1 OOM       0.130300
     30 N26          4.9360     1.0540    -0.0510 nd         1 OOM      -0.504800
     31 C28          3.8930    -2.1280     0.9850 ca         1 OOM      -0.127500
     32 C29          4.2770    -3.4620     0.9800 ca         1 OOM      -0.118500
     33 H1           5.1500     5.2500     1.2080 hc         1 OOM       0.037033
     34 H2           3.6080     4.4080     1.3600 hc         1 OOM       0.037033
     35 H3           5.0640     3.7160     2.0780 hc         1 OOM       0.037033
     36 H4           4.9360     5.3280    -1.2930 hc         1 OOM       0.037033
     37 H5           4.6670     3.8530    -2.2240 hc         1 OOM       0.037033
     38 H6           3.3800     4.5090    -1.2100 hc         1 OOM       0.037033
     39 H7           6.9090     2.7590     0.5890 hc         1 OOM       0.037033
     40 H8           6.7520     2.8370    -1.1650 hc         1 OOM       0.037033
     41 H9           6.9840     4.3160    -0.2350 hc         1 OOM       0.037033
     42 H10          2.1000     2.7110    -0.0730 ha         1 OOM       0.185000
     43 H11         -0.5530    -1.4910    -0.8640 h1         1 OOM       0.104700
     44 H12         -0.4730    -1.6720     0.8910 h1         1 OOM       0.104700
     45 H13         -6.2200    -1.0120    -1.9910 ha         1 OOM       0.154000
     46 H14         -6.4310     2.0670     1.8720 ha         1 OOM       0.150500
     47 H15         -4.8910     0.1580     1.9150 ha         1 OOM       0.154000
     48 H16          5.4740    -4.9680     0.0310 ha         1 OOM       0.138000
     49 H17          6.3770    -3.4180    -1.6740 ha         1 OOM       0.139000
     50 H18          5.6730    -1.0530    -1.6970 ha         1 OOM       0.150000
     51 H19          1.8020    -1.1970    -0.2840 hn         1 OOM       0.336500
     52 H20         -7.8040     0.8750    -2.0170 ha         1 OOM       0.150500
     53 H21         -8.0630     3.1490     0.6510 ho         1 OOM       0.434000
     54 H22          3.2280    -1.7590     1.7560 ha         1 OOM       0.150000
     55 H23          3.8870    -4.1310     1.7360 ha         1 OOM       0.139000
@<TRIPOS>BOND
     1     1     2 1   
     2     1    33 1   
     3     1    34 1   
     4     1    35 1   
     5     2     3 1   
     6     2     4 1   
     7     2     5 1   
     8     3    36 1   
     9     3    37 1   
    10     3    38 1   
    11     4    39 1   
    12     4    40 1   
    13     4    41 1   
    14     5     6 1   
    15     5    30 2   
    16     6     7 2   
    17     6    42 1   
    18     7    18 1   
    19     7    29 1   
    20     8    19 1   
    21     8    21 1   
    22     8    43 1   
    23     8    44 1   
    24     9    10 ar  
    25     9    13 ar  
    26     9    26 1   
    27    10    27 ar  
    28    10    45 1   
    29    11    12 ar  
    30    11    27 ar  
    31    11    28 1   
    32    12    13 ar  
    33    12    46 1   
    34    13    47 1   
    35    14    17 ar  
    36    14    29 1   
    37    14    31 ar  
    38    15    16 ar  
    39    15    32 ar  
    40    15    48 1   
    41    16    17 ar  
    42    16    49 1   
    43    17    50 1   
    44    18    19 1   
    45    18    51 1   
    46    19    20 2   
    47    21    22 1   
    48    22    23 2   
    49    22    26 1   
    50    23    24 1   
    51    24    25 2   
    52    25    26 1   
    53    27    52 1   
    54    28    53 1   
    55    29    30 1   
    56    31    32 ar  
    57    31    54 1   
    58    32    55 1   
@<TRIPOS>SUBSTRUCTURE
     1 OOM         1 TEMP              0 ****  ****    0 ROOT
