@<TRIPOS>MOLECULE
OOM
   55    58     1     0     0
SMALL
No Charge or Current Charge


@<TRIPOS>ATOM
      1 C1           4.6390     4.3870     1.2390 c3         1 OOM      -0.080433
      2 C2           5.1330     3.6070    -0.0090 c3         1 OOM      -0.072300
      3 C3           4.6770     4.3490    -1.2930 c3         1 OOM      -0.080433
      4 C4           6.6890     3.5820     0.0150 c3         1 OOM      -0.080433
      5 C5           4.5450     2.1960     0.0030 cc         1 OOM       0.279300
      6 C6           3.1480     1.9590    -0.0120 cc         1 OOM      -0.225000
      7 C7           2.9670     0.6100     0.0000 cd         1 OOM       0.005600
      8 C11         -0.5760    -0.7740    -0.0540 c3         1 OOM      -0.071400
      9 C18         -5.5240    -0.6760    -0.1300 ca         1 OOM      -0.058200
     10 C19         -6.4540    -0.4950    -1.1730 ca         1 OOM      -0.043500
     11 C21         -7.3680     1.4540    -0.0360 ca         1 OOM       0.163100
     12 C23         -6.4480     1.2760     1.0100 ca         1 OOM      -0.172500
     13 C24         -5.5280     0.2130     0.9660 ca         1 OOM      -0.043500
     14 C27          4.4450    -1.2600     0.0320 ca         1 OOM       0.008800
     15 C30          4.7660    -4.0580     0.0320 ca         1 OOM      -0.105000
     16 C31          4.9070    -3.3350    -1.1650 ca         1 OOM      -0.100500
     17 C32          4.7470    -1.9380    -1.1650 ca         1 OOM      -0.109500
     18 N8           1.7810    -0.1170    -0.0160 ns         1 OOM      -0.393100
     19 C9           0.4760     0.3440    -0.0420 c          1 OOM       0.623100
     20 O10          0.1840     1.5320    -0.0540 o          1 OOM      -0.554100
     21 S12         -2.3320    -0.1570    -0.0980 ss         1 OOM      -0.202300
     22 C13         -3.2600    -1.6570    -0.0960 cc         1 OOM       0.464800
     23 N14         -2.7750    -2.8780    -0.1350 nd         1 OOM      -0.412000
     24 N15         -3.8910    -3.7020    -0.2050 nd         1 OOM      -0.038000
     25 N16         -5.0210    -3.0230    -0.2270 nc         1 OOM      -0.185800
     26 N17         -4.6160    -1.7350    -0.1810 na         1 OOM       0.029500
     27 C20         -7.3720     0.5700    -1.1240 ca         1 OOM      -0.172500
     28 O22         -8.2620     2.4810    -0.0010 oh         1 OOM      -0.523100
     29 N25          4.2740     0.1240     0.0290 na         1 OOM       0.181000
     30 N26          5.2650     1.0840     0.0240 nd         1 OOM      -0.504800
     31 C28          4.3080    -1.9890     1.2300 ca         1 OOM      -0.109500
     32 C29          4.4670    -3.3860     1.2300 ca         1 OOM      -0.100500
     33 H1           5.0670     5.3960     1.2680 hc         1 OOM       0.037033
     34 H2           3.5470     4.4870     1.2400 hc         1 OOM       0.037033
     35 H3           4.9300     3.8680     2.1610 hc         1 OOM       0.037033
     36 H4           5.1060     5.3580    -1.3380 hc         1 OOM       0.037033
     37 H5           4.9970     3.8040    -2.1900 hc         1 OOM       0.037033
     38 H6           3.5860     4.4490    -1.3300 hc         1 OOM       0.037033
     39 H7           7.0620     3.0800     0.9170 hc         1 OOM       0.037033
     40 H8           7.0890     3.0550    -0.8590 hc         1 OOM       0.037033
     41 H9           7.0990     4.6000     0.0070 hc         1 OOM       0.037033
     42 H10          2.3890     2.7310    -0.0350 ha         1 OOM       0.167000
     43 H11         -0.3910    -1.4020    -0.9340 h1         1 OOM       0.104700
     44 H12         -0.4300    -1.3840     0.8460 h1         1 OOM       0.104700
     45 H13         -6.4640    -1.1770    -2.0220 ha         1 OOM       0.136000
     46 H14         -6.4400     1.9550     1.8600 ha         1 OOM       0.132500
     47 H15         -4.8240     0.0790     1.7850 ha         1 OOM       0.136000
     48 H16          4.8900    -5.1390     0.0320 ha         1 OOM       0.120000
     49 H17          5.1390    -3.8560    -2.0910 ha         1 OOM       0.121000
     50 H18          4.8550    -1.3810    -2.0930 ha         1 OOM       0.132000
     51 H19          1.8510    -1.1280    -0.0080 hn         1 OOM       0.336500
     52 H20         -8.0860     0.7080    -1.9320 ha         1 OOM       0.132500
     53 H21         -8.1180     2.9920     0.8240 ho         1 OOM       0.473000
     54 H22          4.0770    -1.4710     2.1590 ha         1 OOM       0.132000
     55 H23          4.3600    -3.9460     2.1560 ha         1 OOM       0.121000
@<TRIPOS>BOND
     1     1     2 1   
     2     1    33 1   
     3     1    34 1   
     4     1    35 1   
     5     2     3 1   
     6     2     4 1   
     7     2     5 1   
     8     3    36 1   
     9     3    37 1   
    10     3    38 1   
    11     4    39 1   
    12     4    40 1   
    13     4    41 1   
    14     5     6 1   
    15     5    30 2   
    16     6     7 2   
    17     6    42 1   
    18     7    18 1   
    19     7    29 1   
    20     8    19 1   
    21     8    21 1   
    22     8    43 1   
    23     8    44 1   
    24     9    10 ar  
    25     9    13 ar  
    26     9    26 1   
    27    10    27 ar  
    28    10    45 1   
    29    11    12 ar  
    30    11    27 ar  
    31    11    28 1   
    32    12    13 ar  
    33    12    46 1   
    34    13    47 1   
    35    14    17 ar  
    36    14    29 1   
    37    14    31 ar  
    38    15    16 ar  
    39    15    32 ar  
    40    15    48 1   
    41    16    17 ar  
    42    16    49 1   
    43    17    50 1   
    44    18    19 1   
    45    18    51 1   
    46    19    20 2   
    47    21    22 1   
    48    22    23 2   
    49    22    26 1   
    50    23    24 1   
    51    24    25 2   
    52    25    26 1   
    53    27    52 1   
    54    28    53 1   
    55    29    30 1   
    56    31    32 ar  
    57    31    54 1   
    58    32    55 1   
@<TRIPOS>SUBSTRUCTURE
     1 OOM         1 TEMP              0 ****  ****    0 ROOT
