@<TRIPOS>MOLECULE
OOO
   79    83     1     0     0
SMALL
No Charge or Current Charge


@<TRIPOS>ATOM
      1 O1          -6.0450     0.7670    -0.6960 os         1 OOO      -0.458100
      2 C3           2.5770     3.0820    -0.2380 ca         1 OOO      -0.242800
      3 C4           3.7760     3.8150    -0.3070 ca         1 OOO       0.429900
      4 N5           3.7630     5.1550    -0.3310 nb         1 OOO      -0.303000
      5 C6           2.5480     5.7440    -0.2670 ca         1 OOO       0.179900
      6 N7           1.3560     5.1210    -0.1360 nb         1 OOO      -0.239000
      7 N8           0.3730     2.8390     0.0920 na         1 OOO      -0.176400
      8 C9           0.8890     1.5290     0.1270 cc         1 OOO      -0.156100
      9 C10          2.2380     1.6630    -0.1570 cd         1 OOO      -0.061400
     10 C12          3.1670     0.5150    -0.2340 ca         1 OOO      -0.044800
     11 C13         -1.0440     3.2740     0.2770 c6         1 OOO       0.087300
     12 C14         -1.5850     2.9910     1.7080 c6         1 OOO      -0.083900
     13 C15         -2.0360     1.5220     1.9230 c6         1 OOO      -0.093400
     14 C16         -3.0480     1.0700     0.8410 c6         1 OOO       0.172500
     15 C17         -2.4590     1.2620    -0.5830 c6         1 OOO      -0.093400
     16 C18         -2.0000     2.7260    -0.8210 c6         1 OOO      -0.083900
     17 C19          4.2610     0.5080    -1.1260 ca         1 OOO      -0.082500
     18 C20          5.1130    -0.6070    -1.2090 ca         1 OOO      -0.155000
     19 C21          4.8660    -1.7430    -0.4240 ca         1 OOO       0.128100
     20 C22          3.7650    -1.7600     0.4500 ca         1 OOO      -0.155000
     21 C23          2.9120    -0.6440     0.5300 ca         1 OOO      -0.082500
     22 O24          5.7210    -2.8180    -0.5170 os         1 OOO      -0.255200
     23 N25         -3.4420    -0.3340     1.0890 n7         1 OOO      -0.860400
     24 C26         -5.9020    -0.0670     0.3870 c          1 OOO       0.589100
     25 C27         -4.5800    -0.9090     0.2960 c3         1 OOO       0.129500
     26 C28         -4.7870    -2.3840     0.7380 c3         1 OOO      -0.077400
     27 C29         -5.8880    -3.1720    -0.0300 c3         1 OOO      -0.057700
     28 C30         -5.6260    -3.2420    -1.5540 c3         1 OOO      -0.090100
     29 C31         -6.0600    -4.5900     0.5600 c3         1 OOO      -0.090100
     30 C32          5.2880    -4.1250    -0.4730 ca         1 OOO       0.103100
     31 C33          6.0800    -5.0820     0.1840 ca         1 OOO      -0.125500
     32 C34          5.6690    -6.4260     0.2320 ca         1 OOO      -0.097000
     33 C35          4.4660    -6.8140    -0.3850 ca         1 OOO      -0.117000
     34 C36          3.6780    -5.8610    -1.0550 ca         1 OOO      -0.097000
     35 C37          4.0900    -4.5170    -1.1030 ca         1 OOO      -0.125500
     36 O38         -6.7110    -0.1400     1.3060 o          1 OOO      -0.468000
     37 C39         -7.2010     1.6170    -0.7480 c3         1 OOO       0.167600
     38 C40         -7.0950     2.4550    -2.0310 c3         1 OOO      -0.097100
     39 C2           1.3890     3.7720    -0.1120 ca         1 OOO       0.144500
     40 H1           2.5300     6.8320    -0.2900 h5         1 OOO       0.043100
     41 H2           0.2910     0.6430     0.2910 h4         1 OOO       0.217000
     42 H3           5.7870     3.8900    -0.0030 hn         1 OOO       0.495500
     43 H4           5.0880     2.3110     0.0780 hn         1 OOO       0.495500
     44 H5          -1.0540     4.3670     0.1620 h1         1 OOO       0.094700
     45 H6          -0.8290     3.2680     2.4560 hc         1 OOO       0.057200
     46 H7          -2.4450     3.6490     1.8920 hc         1 OOO       0.057200
     47 H8          -1.1660     0.8550     1.9400 hc         1 OOO       0.047200
     48 H9          -2.4990     1.4330     2.9150 hc         1 OOO       0.047200
     49 H10         -3.9380     1.7130     0.9350 h1         1 OOO       0.063700
     50 H11         -1.6290     0.5670    -0.7550 hc         1 OOO       0.047200
     51 H12         -3.2170     1.0130    -1.3380 hc         1 OOO       0.047200
     52 H13         -2.8930     3.3660    -0.8540 hc         1 OOO       0.057200
     53 H14         -1.5300     2.8180    -1.8090 hc         1 OOO       0.057200
     54 H15          4.4250     1.3450    -1.7990 ha         1 OOO       0.121500
     55 H16          5.9520    -0.6000    -1.9000 ha         1 OOO       0.128500
     56 H17          3.5690    -2.6320     1.0690 ha         1 OOO       0.128500
     57 H18          2.0670    -0.6750     1.2140 ha         1 OOO       0.121500
     58 H19         -2.6180    -0.9330     0.9620 hn         1 OOO       0.420000
     59 H21         -4.2980    -0.9240    -0.7650 h1         1 OOO       0.050700
     60 H22         -3.8360    -2.9200     0.6330 hc         1 OOO       0.054700
     61 H23         -5.0290    -2.3930     1.8090 hc         1 OOO       0.054700
     62 H24         -6.8450    -2.6550     0.1130 hc         1 OOO       0.052700
     63 H25         -6.3920    -3.8490    -2.0510 hc         1 OOO       0.034700
     64 H26         -5.6540    -2.2440    -2.0080 hc         1 OOO       0.034700
     65 H27         -4.6470    -3.6900    -1.7630 hc         1 OOO       0.034700
     66 H28         -6.3010    -4.5400     1.6290 hc         1 OOO       0.034700
     67 H29         -6.8740    -5.1250     0.0560 hc         1 OOO       0.034700
     68 H30         -5.1400    -5.1770     0.4430 hc         1 OOO       0.034700
     69 H31          7.0110    -4.7800     0.6590 ha         1 OOO       0.128000
     70 H32          6.2810    -7.1640     0.7450 ha         1 OOO       0.116500
     71 H33          4.1480    -7.8540    -0.3490 ha         1 OOO       0.117000
     72 H34          2.7520    -6.1640    -1.5380 ha         1 OOO       0.116500
     73 H35          3.4820    -3.7870    -1.6310 ha         1 OOO       0.128000
     74 H36         -8.1240     1.0220    -0.7710 h1         1 OOO       0.047700
     75 H37         -7.2360     2.2850     0.1230 h1         1 OOO       0.047700
     76 H38         -7.0740     1.8070    -2.9150 hc         1 OOO       0.045700
     77 H39         -7.9570     3.1270    -2.1180 hc         1 OOO       0.045700
     78 H40         -6.1830     3.0640    -2.0200 hc         1 OOO       0.045700
     79 N11          5.0150     3.2730    -0.2370 nv         1 OOO      -1.068900
@<TRIPOS>BOND
     1     1    24 1   
     2     1    37 1   
     3     2     3 ar  
     4     2     9 1   
     5     2    39 ar  
     6     3     4 ar  
     7     3    79 1   
     8     4     5 ar  
     9     5     6 ar  
    10     5    40 1   
    11     6    39 ar  
    12     7     8 1   
    13     7    11 1   
    14     7    39 1   
    15     8     9 2   
    16     8    41 1   
    17     9    10 1   
    18    10    17 ar  
    19    10    21 ar  
    20    11    12 1   
    21    11    16 1   
    22    11    44 1   
    23    12    13 1   
    24    12    45 1   
    25    12    46 1   
    26    13    14 1   
    27    13    47 1   
    28    13    48 1   
    29    14    15 1   
    30    14    23 1   
    31    14    49 1   
    32    15    16 1   
    33    15    50 1   
    34    15    51 1   
    35    16    52 1   
    36    16    53 1   
    37    17    18 ar  
    38    17    54 1   
    39    18    19 ar  
    40    18    55 1   
    41    19    20 ar  
    42    19    22 1   
    43    20    21 ar  
    44    20    56 1   
    45    21    57 1   
    46    22    30 1   
    47    23    25 1   
    48    23    58 1   
    49    24    25 1   
    50    24    36 2   
    51    25    26 1   
    52    25    59 1   
    53    26    27 1   
    54    26    60 1   
    55    26    61 1   
    56    27    28 1   
    57    27    29 1   
    58    27    62 1   
    59    28    63 1   
    60    28    64 1   
    61    28    65 1   
    62    29    66 1   
    63    29    67 1   
    64    29    68 1   
    65    30    31 ar  
    66    30    35 ar  
    67    31    32 ar  
    68    31    69 1   
    69    32    33 ar  
    70    32    70 1   
    71    33    34 ar  
    72    33    71 1   
    73    34    35 ar  
    74    34    72 1   
    75    35    73 1   
    76    37    38 1   
    77    37    74 1   
    78    37    75 1   
    79    38    76 1   
    80    38    77 1   
    81    38    78 1   
    82    42    79 1   
    83    43    79 1   
@<TRIPOS>SUBSTRUCTURE
     1 OOO         1 TEMP              0 ****  ****    0 ROOT
