@<TRIPOS>MOLECULE
OOO
   79    83     1     0     0
SMALL
abcg2


@<TRIPOS>ATOM
      1 O1          -6.5440     0.4470    -0.3570 os         1 OOO      -0.458100
      2 C3           2.8080     2.9930    -0.0640 ca         1 OOO      -0.242800
      3 C4           4.0120     3.7270    -0.0080 ca         1 OOO       0.429900
      4 N5           3.9640     5.0570     0.0930 nb         1 OOO      -0.303000
      5 C6           2.7750     5.6500     0.1710 ca         1 OOO       0.179900
      6 N7           1.5870     5.0850     0.1810 nb         1 OOO      -0.239000
      7 N8           0.5690     2.9180     0.0750 na         1 OOO      -0.176400
      8 C9           1.0400     1.6330    -0.0480 cc         1 OOO      -0.156100
      9 C10          2.4040     1.6210    -0.1440 cd         1 OOO      -0.061400
     10 C12          3.2250     0.4180    -0.3090 ca         1 OOO      -0.044800
     11 C13         -0.8100     3.3750     0.2370 c6         1 OOO       0.087300
     12 C14         -1.3860     3.0180     1.6090 c6         1 OOO      -0.083900
     13 C15         -1.8660     1.5770     1.7280 c6         1 OOO      -0.093400
     14 C16         -2.8650     1.2180     0.6320 c6         1 OOO       0.172500
     15 C17         -2.2630     1.4890    -0.7520 c6         1 OOO      -0.093400
     16 C18         -1.7420     2.9190    -0.8860 c6         1 OOO      -0.083900
     17 C19          4.1990     0.3310    -1.3070 ca         1 OOO      -0.082500
     18 C20          4.9580    -0.8150    -1.4730 ca         1 OOO      -0.155000
     19 C21          4.7530    -1.9090    -0.6400 ca         1 OOO       0.128100
     20 C22          3.7850    -1.8500     0.3560 ca         1 OOO      -0.155000
     21 C23          3.0360    -0.6930     0.5130 ca         1 OOO      -0.082500
     22 O24          5.5640    -2.9870    -0.8300 os         1 OOO      -0.255200
     23 N25         -3.3180    -0.1500     0.8290 n7         1 OOO      -0.860400
     24 C26         -5.7150     0.0590     0.6000 c          1 OOO       0.589100
     25 C27         -4.4510    -0.5670     0.0330 c3         1 OOO       0.129500
     26 C28         -4.5740    -2.0950     0.1190 c3         1 OOO      -0.077400
     27 C29         -5.7260    -2.7440    -0.6480 c3         1 OOO      -0.057700
     28 C30         -5.6480    -2.4770    -2.1480 c3         1 OOO      -0.090100
     29 C31         -5.7250    -4.2460    -0.3730 c3         1 OOO      -0.090100
     30 C32          5.1480    -4.2250    -0.4080 ca         1 OOO       0.103100
     31 C33          5.9150    -4.8900     0.5360 ca         1 OOO      -0.125500
     32 C34          5.5450    -6.1690     0.9330 ca         1 OOO      -0.097000
     33 C35          4.4140    -6.7710     0.3980 ca         1 OOO      -0.117000
     34 C36          3.6530    -6.0910    -0.5460 ca         1 OOO      -0.097000
     35 C37          4.0160    -4.8170    -0.9560 ca         1 OOO      -0.125500
     36 O38         -5.9570     0.1610     1.7770 o          1 OOO      -0.468000
     37 C39         -7.8300     0.9600     0.0200 c3         1 OOO       0.167600
     38 C40         -8.6170     1.2030    -1.2440 c3         1 OOO      -0.097100
     39 C2           1.6400     3.7560     0.0680 ca         1 OOO       0.144500
     40 H1           2.7960     6.7330     0.2460 h5         1 OOO       0.043100
     41 H2           0.3720     0.7910    -0.0920 h4         1 OOO       0.217000
     42 H3           6.0320     3.7230     0.1310 hn         1 OOO       0.495500
     43 H4           5.3320     2.1610     0.0510 hn         1 OOO       0.495500
     44 H5          -0.7340     4.4610     0.1810 h1         1 OOO       0.094700
     45 H6          -0.6530     3.2470     2.3860 hc         1 OOO       0.057200
     46 H7          -2.2360     3.6850     1.7820 hc         1 OOO       0.057200
     47 H8          -1.0180     0.8830     1.6940 hc         1 OOO       0.047200
     48 H9          -2.3360     1.4300     2.7030 hc         1 OOO       0.047200
     49 H10         -3.7350     1.8770     0.7540 h1         1 OOO       0.063700
     50 H11         -1.4720     0.7570    -0.9460 hc         1 OOO       0.047200
     51 H12         -3.0120     1.3250    -1.5300 hc         1 OOO       0.047200
     52 H13         -2.6000     3.5970    -0.8670 hc         1 OOO       0.057200
     53 H14         -1.2600     3.0640    -1.8550 hc         1 OOO       0.057200
     54 H15          4.3510     1.1600    -1.9870 ha         1 OOO       0.121500
     55 H16          5.7050    -0.8660    -2.2550 ha         1 OOO       0.128500
     56 H17          3.6140    -2.6860     1.0210 ha         1 OOO       0.128500
     57 H18          2.3010    -0.6520     1.3070 ha         1 OOO       0.121500
     58 H19         -2.5450    -0.7850     0.6620 hn         1 OOO       0.420000
     59 H21         -4.3660    -0.2790    -1.0230 h1         1 OOO       0.050700
     60 H22         -3.6330    -2.5170    -0.2520 hc         1 OOO       0.054700
     61 H23         -4.6380    -2.3670     1.1770 hc         1 OOO       0.054700
     62 H24         -6.6770    -2.3460    -0.2760 hc         1 OOO       0.052700
     63 H25         -6.4330    -3.0190    -2.6790 hc         1 OOO       0.034700
     64 H26         -5.7660    -1.4200    -2.3870 hc         1 OOO       0.034700
     65 H27         -4.6870    -2.8050    -2.5520 hc         1 OOO       0.034700
     66 H28         -5.8210    -4.4570     0.6930 hc         1 OOO       0.034700
     67 H29         -6.5520    -4.7400    -0.8850 hc         1 OOO       0.034700
     68 H30         -4.7960    -4.7070    -0.7200 hc         1 OOO       0.034700
     69 H31          6.7940    -4.4140     0.9500 ha         1 OOO       0.128000
     70 H32          6.1430    -6.6930     1.6670 ha         1 OOO       0.116500
     71 H33          4.1280    -7.7660     0.7120 ha         1 OOO       0.117000
     72 H34          2.7740    -6.5570    -0.9720 ha         1 OOO       0.116500
     73 H35          3.4280    -4.2920    -1.6980 ha         1 OOO       0.128000
     74 H36         -8.3410     0.2410     0.6640 h1         1 OOO       0.047700
     75 H37         -7.7010     1.8860     0.5850 h1         1 OOO       0.047700
     76 H38         -8.7650     0.2800    -1.8050 hc         1 OOO       0.045700
     77 H39         -9.5990     1.5970    -0.9850 hc         1 OOO       0.045700
     78 H40         -8.1260     1.9300    -1.8920 hc         1 OOO       0.045700
     79 N11          5.2250     3.1540    -0.0640 nv         1 OOO      -1.068900
@<TRIPOS>BOND
     1     1    24 1   
     2     1    37 1   
     3     2     3 ar  
     4     2     9 1   
     5     2    39 ar  
     6     3     4 ar  
     7     3    79 1   
     8     4     5 ar  
     9     5     6 ar  
    10     5    40 1   
    11     6    39 ar  
    12     7     8 1   
    13     7    11 1   
    14     7    39 1   
    15     8     9 2   
    16     8    41 1   
    17     9    10 1   
    18    10    17 ar  
    19    10    21 ar  
    20    11    12 1   
    21    11    16 1   
    22    11    44 1   
    23    12    13 1   
    24    12    45 1   
    25    12    46 1   
    26    13    14 1   
    27    13    47 1   
    28    13    48 1   
    29    14    15 1   
    30    14    23 1   
    31    14    49 1   
    32    15    16 1   
    33    15    50 1   
    34    15    51 1   
    35    16    52 1   
    36    16    53 1   
    37    17    18 ar  
    38    17    54 1   
    39    18    19 ar  
    40    18    55 1   
    41    19    20 ar  
    42    19    22 1   
    43    20    21 ar  
    44    20    56 1   
    45    21    57 1   
    46    22    30 1   
    47    23    25 1   
    48    23    58 1   
    49    24    25 1   
    50    24    36 2   
    51    25    26 1   
    52    25    59 1   
    53    26    27 1   
    54    26    60 1   
    55    26    61 1   
    56    27    28 1   
    57    27    29 1   
    58    27    62 1   
    59    28    63 1   
    60    28    64 1   
    61    28    65 1   
    62    29    66 1   
    63    29    67 1   
    64    29    68 1   
    65    30    31 ar  
    66    30    35 ar  
    67    31    32 ar  
    68    31    69 1   
    69    32    33 ar  
    70    32    70 1   
    71    33    34 ar  
    72    33    71 1   
    73    34    35 ar  
    74    34    72 1   
    75    35    73 1   
    76    37    38 1   
    77    37    74 1   
    78    37    75 1   
    79    38    76 1   
    80    38    77 1   
    81    38    78 1   
    82    42    79 1   
    83    43    79 1   
@<TRIPOS>SUBSTRUCTURE
     1 OOO         1 TEMP              0 ****  ****    0 ROOT
