@<TRIPOS>MOLECULE
OOQ
   73    77     1     0     0
SMALL
No Charge or Current Charge


@<TRIPOS>ATOM
      1 C1          -0.0020    -3.2920    -0.2600 ca         1 OOQ       0.144500
      2 C2          -1.2700    -2.7490    -0.2920 ca         1 OOQ      -0.243800
      3 C3          -2.3460    -3.5740    -0.6700 ca         1 OOQ       0.431900
      4 N4          -2.1380    -4.8400    -1.0590 nb         1 OOQ      -0.298000
      5 C5          -0.8570    -5.2700    -1.0430 ca         1 OOQ       0.184900
      6 N6           0.2250    -4.5660    -0.6410 nb         1 OOQ      -0.244000
      7 N7           0.8600    -2.3360     0.2740 na         1 OOQ      -0.187400
      8 C8           0.1510    -1.1790     0.6600 cc         1 OOQ      -0.171100
      9 C9          -1.1470    -1.3870     0.2220 cd         1 OOQ      -0.045400
     10 N10         -3.6510    -3.2320    -0.5660 nv         1 OOQ      -1.062900
     11 C11         -2.2340    -0.4020     0.4060 ca         1 OOQ      -0.039800
     12 C12          2.3090    -2.6440     0.4780 c6         1 OOQ       0.097300
     13 C13          3.0690    -2.8040    -0.8740 c6         1 OOQ      -0.086400
     14 C14          3.3440    -1.4450    -1.5610 c6         1 OOQ      -0.098400
     15 C15          4.1760    -0.5390    -0.6300 c6         1 OOQ       0.103300
     16 C16          3.4310    -0.2930     0.7000 c6         1 OOQ      -0.098400
     17 C17          3.0590    -1.6320     1.4020 c6         1 OOQ      -0.086400
     18 C18         -2.1930     0.4930     1.4970 ca         1 OOQ      -0.093500
     19 C19         -3.2020     1.4570     1.6740 ca         1 OOQ      -0.131000
     20 C20         -4.2560     1.5510     0.7540 ca         1 OOQ       0.116100
     21 C21         -4.2790     0.7020    -0.3680 ca         1 OOQ      -0.131000
     22 C22         -3.2700    -0.2630    -0.5410 ca         1 OOQ      -0.093500
     23 O23         -5.2210     2.5160     0.9390 os         1 OOQ      -0.254200
     24 N24          4.4030     0.8120    -1.3430 ny         1 OOQ      -0.809000
     25 C25          5.2550     3.2600    -1.4210 c          1 OOQ       0.710000
     26 C26          5.2430     1.9090    -0.6330 c3         1 OOQ      -0.053700
     27 C27          6.6800     1.3990    -0.3480 c3         1 OOQ      -0.070400
     28 C28          7.5520     2.3490     0.5170 c3         1 OOQ      -0.051700
     29 C29          6.9340     2.6010     1.9130 c3         1 OOQ      -0.090600
     30 C30          8.9950     1.8100     0.6460 c3         1 OOQ      -0.090600
     31 C31         -6.5480     2.3160     0.6320 ca         1 OOQ       0.122100
     32 C32         -7.2870     3.3790     0.0860 ca         1 OOQ      -0.147000
     33 C33         -8.6480     3.2060    -0.2240 ca         1 OOQ      -0.084500
     34 C34         -9.2710     1.9700     0.0210 ca         1 OOQ      -0.131000
     35 C35         -8.5380     0.9080     0.5800 ca         1 OOQ      -0.084500
     36 C36         -7.1770     1.0820     0.8900 ca         1 OOQ      -0.147000
     37 O37          5.3700     3.2020    -2.6380 o          1 OOQ      -0.664000
     38 O38          4.9660     4.2790    -0.8130 o          1 OOQ      -0.664000
     39 H1          -0.6820    -6.2970    -1.3580 h5         1 OOQ       0.047100
     40 H2           0.5950    -0.3270     1.1560 h4         1 OOQ       0.215000
     41 H3          -4.3380    -3.9800    -0.5840 hn         1 OOQ       0.496500
     42 H4          -3.8790    -2.4170    -0.0050 hn         1 OOQ       0.496500
     43 H5           2.3390    -3.6190     0.9860 h1         1 OOQ       0.092700
     44 H6           4.0270    -3.3100    -0.6870 hc         1 OOQ       0.070200
     45 H7           2.5180    -3.4600    -1.5600 hc         1 OOQ       0.070200
     46 H8           3.8830    -1.6110    -2.5030 hc         1 OOQ       0.064450
     47 H9           2.3920    -0.9600    -1.8200 hc         1 OOQ       0.064450
     48 H10          5.1650    -0.9760    -0.4490 hx         1 OOQ       0.095700
     49 H11          4.0620     0.3020     1.3730 hc         1 OOQ       0.064450
     50 H12          2.5380     0.3130     0.5070 hc         1 OOQ       0.064450
     51 H13          2.4730    -1.4390     2.3110 hc         1 OOQ       0.070200
     52 H14          3.9870    -2.1070     1.7490 hc         1 OOQ       0.070200
     53 H15         -1.3920     0.4300     2.2290 ha         1 OOQ       0.121500
     54 H16         -3.1690     2.1300     2.5270 ha         1 OOQ       0.132500
     55 H17         -5.0610     0.8020    -1.1160 ha         1 OOQ       0.132500
     56 H18         -3.2680    -0.8630    -1.4470 ha         1 OOQ       0.121500
     57 H19          4.8200     0.6240    -2.2790 hn         1 OOQ       0.504000
     58 H20          3.4710     1.2010    -1.5970 hn         1 OOQ       0.504000
     59 H21          4.7580     2.1260     0.3200 hx         1 OOQ       0.081700
     60 H22          6.6250     0.4310     0.1630 hc         1 OOQ       0.034700
     61 H23          7.1830     1.2180    -1.3060 hc         1 OOQ       0.034700
     62 H24          7.6190     3.3170     0.0040 hc         1 OOQ       0.089700
     63 H25          6.8080     1.6590     2.4600 hc         1 OOQ       0.033700
     64 H26          7.5790     3.2590     2.5090 hc         1 OOQ       0.033700
     65 H27          5.9540     3.0850     1.8320 hc         1 OOQ       0.033700
     66 H28          9.0060     0.8400     1.1580 hc         1 OOQ       0.033700
     67 H29          9.4500     1.6800    -0.3440 hc         1 OOQ       0.033700
     68 H30          9.6210     2.5070     1.2160 hc         1 OOQ       0.033700
     69 H31         -6.8040     4.3340    -0.1010 ha         1 OOQ       0.126000
     70 H32         -9.2180     4.0280    -0.6520 ha         1 OOQ       0.115500
     71 H33        -10.3240     1.8360    -0.2180 ha         1 OOQ       0.117000
     72 H34         -9.0240    -0.0450     0.7760 ha         1 OOQ       0.115500
     73 H35         -6.6170     0.2620     1.3320 ha         1 OOQ       0.126000
@<TRIPOS>BOND
     1     1     2 ar  
     2     1     6 ar  
     3     1     7 1   
     4     2     3 ar  
     5     2     9 1   
     6     3     4 ar  
     7     3    10 1   
     8     4     5 ar  
     9     5     6 ar  
    10     5    39 1   
    11     7     8 1   
    12     7    12 1   
    13     8     9 2   
    14     8    40 1   
    15     9    11 1   
    16    10    41 1   
    17    10    42 1   
    18    11    18 ar  
    19    11    22 ar  
    20    12    13 1   
    21    12    17 1   
    22    12    43 1   
    23    13    14 1   
    24    13    44 1   
    25    13    45 1   
    26    14    15 1   
    27    14    46 1   
    28    14    47 1   
    29    15    16 1   
    30    15    24 1   
    31    15    48 1   
    32    16    17 1   
    33    16    49 1   
    34    16    50 1   
    35    17    51 1   
    36    17    52 1   
    37    18    19 ar  
    38    18    53 1   
    39    19    20 ar  
    40    19    54 1   
    41    20    21 ar  
    42    20    23 1   
    43    21    22 ar  
    44    21    55 1   
    45    22    56 1   
    46    23    31 1   
    47    24    26 1   
    48    24    57 1   
    49    24    58 1   
    50    25    26 1   
    51    25    37 1   
    52    25    38 1   
    53    26    27 1   
    54    26    59 1   
    55    27    28 1   
    56    27    60 1   
    57    27    61 1   
    58    28    29 1   
    59    28    30 1   
    60    28    62 1   
    61    29    63 1   
    62    29    64 1   
    63    29    65 1   
    64    30    66 1   
    65    30    67 1   
    66    30    68 1   
    67    31    32 ar  
    68    31    36 ar  
    69    32    33 ar  
    70    32    69 1   
    71    33    34 ar  
    72    33    70 1   
    73    34    35 ar  
    74    34    71 1   
    75    35    36 ar  
    76    35    72 1   
    77    36    73 1   
@<TRIPOS>SUBSTRUCTURE
     1 OOQ         1 TEMP              0 ****  ****    0 ROOT
