@<TRIPOS>MOLECULE
OOQ
   73    77     1     0     0
SMALL
bcc


@<TRIPOS>ATOM
      1 C1           0.0430    -3.3650    -0.1950 ca         1 OOQ       0.472800
      2 C2          -1.2440    -2.8130    -0.2050 ca         1 OOQ      -0.374400
      3 C3          -2.2760    -3.7120    -0.5490 ca         1 OOQ       0.760200
      4 N4          -1.9630    -4.9610    -0.9040 nb         1 OOQ      -0.824000
      5 C5          -0.6860    -5.3330    -0.8830 ca         1 OOQ       0.710900
      6 N6           0.3620    -4.6160    -0.5320 nb         1 OOQ      -0.770000
      7 N7           0.9200    -2.4220     0.2390 na         1 OOQ      -0.158100
      8 C8           0.2120    -1.2770     0.5040 cc         1 OOQ      -0.121100
      9 C9          -1.1190    -1.4570     0.2420 cd         1 OOQ      -0.045400
     10 N10         -3.5760    -3.3750    -0.5520 nv         1 OOQ      -0.952500
     11 C11         -2.1500    -0.4240     0.3740 ca         1 OOQ      -0.039800
     12 C12          2.3570    -2.6690     0.3470 c6         1 OOQ       0.068000
     13 C13          3.0200    -2.6860    -1.0310 c6         1 OOQ      -0.086400
     14 C14          3.1890    -1.2910    -1.6120 c6         1 OOQ      -0.098400
     15 C15          4.0420    -0.4470    -0.6780 c6         1 OOQ       0.131500
     16 C16          3.4150    -0.3250     0.7000 c6         1 OOQ      -0.098400
     17 C17          3.0790    -1.7010     1.2820 c6         1 OOQ      -0.086400
     18 C18         -2.2150     0.3830     1.5100 ca         1 OOQ      -0.111500
     19 C19         -3.1700     1.3810     1.6300 ca         1 OOQ      -0.149000
     20 C20         -4.0810     1.5840     0.6050 ca         1 OOQ       0.116100
     21 C21         -4.0350     0.7990    -0.5400 ca         1 OOQ      -0.149000
     22 C22         -3.0720    -0.1910    -0.6500 ca         1 OOQ      -0.111500
     23 O23         -4.9770     2.6110     0.7290 os         1 OOQ      -0.254200
     24 N24          4.2310     0.9000    -1.2910 ny         1 OOQ      -0.755000
     25 C25          5.2160     3.1230    -1.5480 c          1 OOQ       0.920600
     26 C26          5.0450     1.9320    -0.5680 c3         1 OOQ      -0.025500
     27 C27          6.3980     1.3520    -0.1680 c3         1 OOQ      -0.070400
     28 C28          7.3270     2.3320     0.5530 c3         1 OOQ      -0.051700
     29 C29          6.6940     2.8900     1.8230 c3         1 OOQ      -0.090600
     30 C30          8.6410     1.6250     0.8760 c3         1 OOQ      -0.090600
     31 C31         -6.3100     2.3650     0.5530 ca         1 OOQ       0.122100
     32 C32         -7.0780     3.4050     0.0440 ca         1 OOQ      -0.165000
     33 C33         -8.4470     3.2350    -0.1030 ca         1 OOQ      -0.102500
     34 C34         -9.0510     2.0330     0.2430 ca         1 OOQ      -0.149000
     35 C35         -8.2710     1.0010     0.7480 ca         1 OOQ      -0.102500
     36 C36         -6.9010     1.1580     0.9080 ca         1 OOQ      -0.165000
     37 O37          5.3190     2.8030    -2.7490 o          1 OOQ      -0.769300
     38 O38          5.2640     4.2510    -1.0430 o          1 OOQ      -0.769300
     39 H1          -0.4910    -6.3580    -1.1820 h5         1 OOQ       0.047100
     40 H2           0.6930    -0.3810     0.8550 h4         1 OOQ       0.165000
     41 H3          -4.2560    -4.1080    -0.6700 hn         1 OOQ       0.441300
     42 H4          -3.8910    -2.5400    -0.0910 hn         1 OOQ       0.441300
     43 H5           2.4480    -3.6680     0.7760 h1         1 OOQ       0.092700
     44 H6           4.0010    -3.1560    -0.9220 hc         1 OOQ       0.070200
     45 H7           2.4510    -3.3150    -1.7160 hc         1 OOQ       0.070200
     46 H8           3.6640    -1.3600    -2.5940 hc         1 OOQ       0.064450
     47 H9           2.2140    -0.8160    -1.7650 hc         1 OOQ       0.064450
     48 H10          5.0330    -0.8960    -0.6030 hx         1 OOQ       0.095700
     49 H11          4.0990     0.1710     1.3910 hc         1 OOQ       0.064450
     50 H12          2.5330     0.3170     0.6420 hc         1 OOQ       0.064450
     51 H13          2.5290    -1.5820     2.2170 hc         1 OOQ       0.070200
     52 H14          4.0180    -2.1920     1.5500 hc         1 OOQ       0.070200
     53 H15         -1.5200     0.2170     2.3250 ha         1 OOQ       0.139500
     54 H16         -3.2110     1.9950     2.5200 ha         1 OOQ       0.150500
     55 H17         -4.7320     0.9660    -1.3520 ha         1 OOQ       0.150500
     56 H18         -3.0240    -0.7720    -1.5620 ha         1 OOQ       0.139500
     57 H19          4.6510     0.8120    -2.2240 hn         1 OOQ       0.448800
     58 H20          3.3070     1.2990    -1.4700 hn         1 OOQ       0.448800
     59 H21          4.4670     2.2340     0.3060 hx         1 OOQ       0.081700
     60 H22          6.2560     0.4930     0.4960 hc         1 OOQ       0.034700
     61 H23          6.8990     0.9740    -1.0660 hc         1 OOQ       0.034700
     62 H24          7.5500     3.1670    -0.1160 hc         1 OOQ       0.089700
     63 H25          6.3640     2.0830     2.4830 hc         1 OOQ       0.033700
     64 H26          7.4130     3.4940     2.3790 hc         1 OOQ       0.033700
     65 H27          5.8350     3.5230     1.6050 hc         1 OOQ       0.033700
     66 H28          8.4770     0.7970     1.5700 hc         1 OOQ       0.033700
     67 H29          9.1110     1.2190    -0.0210 hc         1 OOQ       0.033700
     68 H30          9.3480     2.3120     1.3430 hc         1 OOQ       0.033700
     69 H31         -6.6060     4.3390    -0.2320 ha         1 OOQ       0.144000
     70 H32         -9.0420     4.0490    -0.4980 ha         1 OOQ       0.133500
     71 H33        -10.1180     1.9030     0.1230 ha         1 OOQ       0.135000
     72 H34         -8.7290     0.0620     1.0290 ha         1 OOQ       0.133500
     73 H35         -6.3110     0.3470     1.3150 ha         1 OOQ       0.144000
@<TRIPOS>BOND
     1     1     2 ar  
     2     1     6 ar  
     3     1     7 1   
     4     2     3 ar  
     5     2     9 1   
     6     3     4 ar  
     7     3    10 1   
     8     4     5 ar  
     9     5     6 ar  
    10     5    39 1   
    11     7     8 1   
    12     7    12 1   
    13     8     9 2   
    14     8    40 1   
    15     9    11 1   
    16    10    41 1   
    17    10    42 1   
    18    11    18 ar  
    19    11    22 ar  
    20    12    13 1   
    21    12    17 1   
    22    12    43 1   
    23    13    14 1   
    24    13    44 1   
    25    13    45 1   
    26    14    15 1   
    27    14    46 1   
    28    14    47 1   
    29    15    16 1   
    30    15    24 1   
    31    15    48 1   
    32    16    17 1   
    33    16    49 1   
    34    16    50 1   
    35    17    51 1   
    36    17    52 1   
    37    18    19 ar  
    38    18    53 1   
    39    19    20 ar  
    40    19    54 1   
    41    20    21 ar  
    42    20    23 1   
    43    21    22 ar  
    44    21    55 1   
    45    22    56 1   
    46    23    31 1   
    47    24    26 1   
    48    24    57 1   
    49    24    58 1   
    50    25    26 1   
    51    25    37 1   
    52    25    38 1   
    53    26    27 1   
    54    26    59 1   
    55    27    28 1   
    56    27    60 1   
    57    27    61 1   
    58    28    29 1   
    59    28    30 1   
    60    28    62 1   
    61    29    63 1   
    62    29    64 1   
    63    29    65 1   
    64    30    66 1   
    65    30    67 1   
    66    30    68 1   
    67    31    32 ar  
    68    31    36 ar  
    69    32    33 ar  
    70    32    69 1   
    71    33    34 ar  
    72    33    70 1   
    73    34    35 ar  
    74    34    71 1   
    75    35    36 ar  
    76    35    72 1   
    77    36    73 1   
@<TRIPOS>SUBSTRUCTURE
     1 OOQ         1 TEMP              0 ****  ****    0 ROOT
