@<TRIPOS>MOLECULE
OOS
   74    78     1     0     0
SMALL
No Charge or Current Charge


@<TRIPOS>ATOM
      1 C1          -0.0960    -2.9630     0.0020 ca         1 OOS       0.148500
      2 C2          -1.4730    -2.9080     0.0780 ca         1 OOS      -0.242800
      3 C3          -2.1760    -4.0960     0.3520 ca         1 OOS       0.428900
      4 N4          -1.5330    -5.2670     0.4630 nb         1 OOS      -0.303000
      5 C5          -0.1890    -5.2310     0.3130 ca         1 OOS       0.178900
      6 N6           0.5700    -4.1320     0.1090 nb         1 OOS      -0.235000
      7 N7           0.3690    -1.6590    -0.1230 na         1 OOS      -0.175400
      8 C8          -0.6850    -0.7300    -0.1110 cc         1 OOS      -0.158100
      9 C9          -1.8380    -1.4990    -0.0680 cd         1 OOS      -0.064400
     10 N10         -3.4970    -4.1590     0.6420 nv         1 OOS      -1.067900
     11 C11         -3.1990    -0.9210    -0.0540 ca         1 OOS      -0.021800
     12 C12          1.8180    -1.3500    -0.2070 c6         1 OOS       0.082300
     13 C13          2.1480    -0.5760    -1.5100 c6         1 OOS      -0.084900
     14 C14          3.6590    -0.2410    -1.5910 c6         1 OOS      -0.089900
     15 C15          4.1310     0.5630    -0.3520 c6         1 OOS       0.174500
     16 C16          3.7940    -0.2100     0.9550 c6         1 OOS      -0.089900
     17 C17          2.2840    -0.5510     1.0380 c6         1 OOS      -0.084900
     18 C18         -4.2870    -1.5750    -0.6680 ca         1 OOS      -0.098000
     19 C19         -5.5670    -0.9930    -0.6730 ca         1 OOS      -0.127000
     20 C20         -5.7710     0.2650    -0.0890 ca         1 OOS       0.104100
     21 C21         -4.6900     0.9420     0.5050 ca         1 OOS      -0.127000
     22 C22         -3.4100     0.3580     0.5050 ca         1 OOS      -0.098000
     23 O23         -7.0370     0.8090    -0.0970 os         1 OOS      -0.257200
     24 N24          5.5790     0.8340    -0.4640 n7         1 OOS      -0.855400
     25 C25          5.6530     3.3100     0.3370 c          1 OOS       0.598100
     26 C26          6.1960     1.8340     0.4690 c3         1 OOS       0.109500
     27 C27          7.7430     1.8050     0.3140 c3         1 OOS      -0.080400
     28 C28          8.4370     0.4370     0.5880 c3         1 OOS      -0.064700
     29 C29          9.9570     0.5320     0.3230 c3         1 OOS      -0.090100
     30 C30          8.1630    -0.1040     2.0120 c3         1 OOS      -0.090100
     31 C31         -7.2730     2.1530    -0.2830 ca         1 OOS       0.128100
     32 C32         -8.3100     2.7660     0.4390 ca         1 OOS      -0.152500
     33 C33         -8.5820     4.1340     0.2580 ca         1 OOS      -0.083000
     34 C34         -7.8200     4.8860    -0.6530 ca         1 OOS      -0.137000
     35 C35         -6.7910     4.2720    -1.3870 ca         1 OOS      -0.083000
     36 C36         -6.5190     2.9040    -1.2060 ca         1 OOS      -0.152500
     37 O37          5.0700     3.7540    -0.6420 o          1 OOS      -0.575100
     38 N38          5.8560     4.1150     1.4090 nt         1 OOS      -0.620000
     39 H1           0.3380    -6.1800     0.3980 h5         1 OOS       0.043100
     40 H2          -0.5390     0.3430    -0.1790 h4         1 OOS       0.219000
     41 H3          -3.8400    -4.9970     1.1020 hn         1 OOS       0.495000
     42 H4          -3.9700    -3.2890     0.8670 hn         1 OOS       0.495000
     43 H5           2.3800    -2.2960    -0.2290 h1         1 OOS       0.094700
     44 H6           1.8540    -1.1740    -2.3830 hc         1 OOS       0.051700
     45 H7           1.5650     0.3540    -1.5580 hc         1 OOS       0.051700
     46 H8           4.2360    -1.1720    -1.6770 hc         1 OOS       0.050200
     47 H9           3.8580     0.3350    -2.5050 hc         1 OOS       0.050200
     48 H10          3.5830     1.5180    -0.3440 h1         1 OOS       0.059700
     49 H11          4.3830    -1.1360     1.0060 hc         1 OOS       0.050200
     50 H12          4.0710     0.3860     1.8340 hc         1 OOS       0.050200
     51 H13          1.7040     0.3790     1.1290 hc         1 OOS       0.051700
     52 H14          2.0860    -1.1320     1.9490 hc         1 OOS       0.051700
     53 H15         -4.1360    -2.5140    -1.1950 ha         1 OOS       0.122500
     54 H16         -6.3970    -1.5080    -1.1500 ha         1 OOS       0.129500
     55 H17         -4.8370     1.9140     0.9670 ha         1 OOS       0.129500
     56 H18         -2.5870     0.8950     0.9700 ha         1 OOS       0.122500
     57 H19          6.0800    -0.0540    -0.3600 hn         1 OOS       0.424000
     58 H21          5.9760     1.5380     1.5020 h1         1 OOS       0.023700
     59 H22          7.9920     2.1340    -0.7030 hc         1 OOS       0.058200
     60 H23          8.1770     2.5530     0.9890 hc         1 OOS       0.058200
     61 H24          8.0420    -0.2980    -0.1240 hc         1 OOS       0.045700
     62 H25         10.4300     1.2450     1.0100 hc         1 OOS       0.034367
     63 H26         10.4370    -0.4450     0.4590 hc         1 OOS       0.034367
     64 H27         10.1530     0.8630    -0.7040 hc         1 OOS       0.034367
     65 H28          7.0980    -0.3160     2.1590 hc         1 OOS       0.034367
     66 H29          8.7100    -1.0400     2.1810 hc         1 OOS       0.034367
     67 H30          8.4810     0.6190     2.7730 hc         1 OOS       0.034367
     68 H31         -8.8990     2.1820     1.1420 ha         1 OOS       0.127000
     69 H32         -9.3820     4.6100     0.8220 ha         1 OOS       0.114000
     70 H33         -8.0310     5.9440    -0.7940 ha         1 OOS       0.116000
     71 H34         -6.2070     4.8540    -2.0970 ha         1 OOS       0.114000
     72 H35         -5.7290     2.4310    -1.7840 ha         1 OOS       0.127000
     73 H36          6.3290     3.7610     2.2270 hn         1 OOS       0.310500
     74 H37          5.5260     5.0680     1.3790 hn         1 OOS       0.310500
@<TRIPOS>BOND
     1     1     2 ar  
     2     1     6 ar  
     3     1     7 1   
     4     2     3 ar  
     5     2     9 1   
     6     3     4 ar  
     7     3    10 1   
     8     4     5 ar  
     9     5     6 ar  
    10     5    39 1   
    11     7     8 1   
    12     7    12 1   
    13     8     9 2   
    14     8    40 1   
    15     9    11 1   
    16    10    41 1   
    17    10    42 1   
    18    11    18 ar  
    19    11    22 ar  
    20    12    13 1   
    21    12    17 1   
    22    12    43 1   
    23    13    14 1   
    24    13    44 1   
    25    13    45 1   
    26    14    15 1   
    27    14    46 1   
    28    14    47 1   
    29    15    16 1   
    30    15    24 1   
    31    15    48 1   
    32    16    17 1   
    33    16    49 1   
    34    16    50 1   
    35    17    51 1   
    36    17    52 1   
    37    18    19 ar  
    38    18    53 1   
    39    19    20 ar  
    40    19    54 1   
    41    20    21 ar  
    42    20    23 1   
    43    21    22 ar  
    44    21    55 1   
    45    22    56 1   
    46    23    31 1   
    47    24    26 1   
    48    24    57 1   
    49    25    26 1   
    50    25    37 2   
    51    25    38 1   
    52    26    27 1   
    53    26    58 1   
    54    27    28 1   
    55    27    59 1   
    56    27    60 1   
    57    28    29 1   
    58    28    30 1   
    59    28    61 1   
    60    29    62 1   
    61    29    63 1   
    62    29    64 1   
    63    30    65 1   
    64    30    66 1   
    65    30    67 1   
    66    31    32 ar  
    67    31    36 ar  
    68    32    33 ar  
    69    32    68 1   
    70    33    34 ar  
    71    33    69 1   
    72    34    35 ar  
    73    34    70 1   
    74    35    36 ar  
    75    35    71 1   
    76    36    72 1   
    77    38    73 1   
    78    38    74 1   
@<TRIPOS>SUBSTRUCTURE
     1 OOS         1 TEMP              0 ****  ****    0 ROOT
