@<TRIPOS>MOLECULE
OOS
   74    78     1     0     0
SMALL
abcg2


@<TRIPOS>ATOM
      1 C1          -0.0700    -2.9960    -0.0350 ca         1 OOS       0.148500
      2 C2          -1.4600    -2.9190     0.1270 ca         1 OOS      -0.242800
      3 C3          -2.1030    -4.1570     0.3440 ca         1 OOS       0.428900
      4 N4          -1.3870    -5.2830     0.3020 nb         1 OOS      -0.303000
      5 C5          -0.0740    -5.2010     0.0960 ca         1 OOS       0.178900
      6 N6           0.6550    -4.1170    -0.0610 nb         1 OOS      -0.235000
      7 N7           0.4210    -1.7360    -0.1470 na         1 OOS      -0.175400
      8 C8          -0.6270    -0.8560    -0.0570 cc         1 OOS      -0.158100
      9 C9          -1.8090    -1.5280     0.1000 cd         1 OOS      -0.064400
     10 N10         -3.4200    -4.2710     0.5850 nv         1 OOS      -1.067900
     11 C11         -3.1300    -0.8970     0.1580 ca         1 OOS      -0.021800
     12 C12          1.8230    -1.3850    -0.3100 c6         1 OOS       0.082300
     13 C13          2.0350    -0.4660    -1.5100 c6         1 OOS      -0.084900
     14 C14          3.5100    -0.1170    -1.6770 c6         1 OOS      -0.089900
     15 C15          4.0990     0.4950    -0.4100 c6         1 OOS       0.174500
     16 C16          3.8710    -0.4420     0.7790 c6         1 OOS      -0.089900
     17 C17          2.3960    -0.7740     0.9650 c6         1 OOS      -0.084900
     18 C18         -4.1910    -1.3720    -0.6150 ca         1 OOS      -0.098000
     19 C19         -5.4310    -0.7500    -0.5930 ca         1 OOS      -0.127000
     20 C20         -5.6230     0.3650     0.2070 ca         1 OOS       0.104100
     21 C21         -4.5820     0.8610     0.9820 ca         1 OOS      -0.127000
     22 C22         -3.3510     0.2280     0.9560 ca         1 OOS      -0.098000
     23 O23         -6.8700     0.9300     0.2520 os         1 OOS      -0.257200
     24 N24          5.4970     0.8350    -0.6260 n7         1 OOS      -0.855400
     25 C25          5.5940     3.2010    -0.0800 c          1 OOS       0.598100
     26 C26          6.0450     1.7890     0.3060 c3         1 OOS       0.109500
     27 C27          7.5780     1.7710     0.2750 c3         1 OOS      -0.080400
     28 C28          8.2350     0.4780     0.7710 c3         1 OOS      -0.064700
     29 C29          9.7510     0.6070     0.6530 c3         1 OOS      -0.090100
     30 C30          7.8370     0.1360     2.2030 c3         1 OOS      -0.090100
     31 C31         -7.0300     2.2370    -0.1070 ca         1 OOS       0.128100
     32 C32         -8.1310     2.8980     0.4260 ca         1 OOS      -0.152500
     33 C33         -8.3800     4.2140     0.0670 ca         1 OOS      -0.083000
     34 C34         -7.5350     4.8780    -0.8130 ca         1 OOS      -0.137000
     35 C35         -6.4390     4.2080    -1.3380 ca         1 OOS      -0.083000
     36 C36         -6.1790     2.8880    -0.9940 ca         1 OOS      -0.152500
     37 O37          5.4730     3.5590    -1.2400 o          1 OOS      -0.575100
     38 N38          5.3880     4.0190     0.9660 nt         1 OOS      -0.620000
     39 H1           0.4550    -6.1480     0.0670 h5         1 OOS       0.043100
     40 H2          -0.4690     0.2070    -0.1480 h4         1 OOS       0.219000
     41 H3          -3.7760    -5.1670     0.8700 hn         1 OOS       0.495000
     42 H4          -3.9680    -3.4660     0.8330 hn         1 OOS       0.495000
     43 H5           2.3400    -2.3290    -0.5030 h1         1 OOS       0.094700
     44 H6           1.6550    -0.9470    -2.4130 hc         1 OOS       0.051700
     45 H7           1.4590     0.4570    -1.3790 hc         1 OOS       0.051700
     46 H8           4.0720    -1.0220    -1.9360 hc         1 OOS       0.050200
     47 H9           3.6340     0.5800    -2.5080 hc         1 OOS       0.050200
     48 H10          3.5620     1.4310    -0.2130 h1         1 OOS       0.059700
     49 H11          4.4360    -1.3670     0.6100 hc         1 OOS       0.050200
     50 H12          4.2650    -0.0000     1.6970 hc         1 OOS       0.050200
     51 H13          1.8420     0.1360     1.2210 hc         1 OOS       0.051700
     52 H14          2.2650    -1.4700     1.7970 hc         1 OOS       0.051700
     53 H15         -4.0470    -2.2200    -1.2720 ha         1 OOS       0.122500
     54 H16         -6.2410    -1.1270    -1.2030 ha         1 OOS       0.129500
     55 H17         -4.7310     1.7260     1.6160 ha         1 OOS       0.129500
     56 H18         -2.5510     0.6070     1.5790 ha         1 OOS       0.122500
     57 H19          6.0530    -0.0120    -0.6310 hn         1 OOS       0.424000
     58 H21          5.7220     1.6050     1.3430 h1         1 OOS       0.023700
     59 H22          7.9060     1.9750    -0.7490 hc         1 OOS       0.058200
     60 H23          7.9480     2.5970     0.8920 hc         1 OOS       0.058200
     61 H24          7.9300    -0.3540     0.1250 hc         1 OOS       0.045700
     62 H25         10.1220     1.4140     1.2900 hc         1 OOS       0.034367
     63 H26         10.2500    -0.3130     0.9600 hc         1 OOS       0.034367
     64 H27         10.0570     0.8260    -0.3710 hc         1 OOS       0.034367
     65 H28          6.7730    -0.0850     2.3000 hc         1 OOS       0.034367
     66 H29          8.3820    -0.7400     2.5560 hc         1 OOS       0.034367
     67 H30          8.0650     0.9640     2.8800 hc         1 OOS       0.034367
     68 H31         -8.7870     2.3800     1.1150 ha         1 OOS       0.127000
     69 H32         -9.2380     4.7240     0.4860 ha         1 OOS       0.114000
     70 H33         -7.7310     5.9050    -1.0890 ha         1 OOS       0.116000
     71 H34         -5.7760     4.7110    -2.0300 ha         1 OOS       0.114000
     72 H35         -5.3240     2.3800    -1.4210 ha         1 OOS       0.127000
     73 H36          5.4890     3.7030     1.9150 hn         1 OOS       0.310500
     74 H37          5.1930     4.9960     0.8230 hn         1 OOS       0.310500
@<TRIPOS>BOND
     1     1     2 ar  
     2     1     6 ar  
     3     1     7 1   
     4     2     3 ar  
     5     2     9 1   
     6     3     4 ar  
     7     3    10 1   
     8     4     5 ar  
     9     5     6 ar  
    10     5    39 1   
    11     7     8 1   
    12     7    12 1   
    13     8     9 2   
    14     8    40 1   
    15     9    11 1   
    16    10    41 1   
    17    10    42 1   
    18    11    18 ar  
    19    11    22 ar  
    20    12    13 1   
    21    12    17 1   
    22    12    43 1   
    23    13    14 1   
    24    13    44 1   
    25    13    45 1   
    26    14    15 1   
    27    14    46 1   
    28    14    47 1   
    29    15    16 1   
    30    15    24 1   
    31    15    48 1   
    32    16    17 1   
    33    16    49 1   
    34    16    50 1   
    35    17    51 1   
    36    17    52 1   
    37    18    19 ar  
    38    18    53 1   
    39    19    20 ar  
    40    19    54 1   
    41    20    21 ar  
    42    20    23 1   
    43    21    22 ar  
    44    21    55 1   
    45    22    56 1   
    46    23    31 1   
    47    24    26 1   
    48    24    57 1   
    49    25    26 1   
    50    25    37 2   
    51    25    38 1   
    52    26    27 1   
    53    26    58 1   
    54    27    28 1   
    55    27    59 1   
    56    27    60 1   
    57    28    29 1   
    58    28    30 1   
    59    28    61 1   
    60    29    62 1   
    61    29    63 1   
    62    29    64 1   
    63    30    65 1   
    64    30    66 1   
    65    30    67 1   
    66    31    32 ar  
    67    31    36 ar  
    68    32    33 ar  
    69    32    68 1   
    70    33    34 ar  
    71    33    69 1   
    72    34    35 ar  
    73    34    70 1   
    74    35    36 ar  
    75    35    71 1   
    76    36    72 1   
    77    38    73 1   
    78    38    74 1   
@<TRIPOS>SUBSTRUCTURE
     1 OOS         1 TEMP              0 ****  ****    0 ROOT
