@<TRIPOS>MOLECULE
OOU
   77    81     1     0     0
SMALL
No Charge or Current Charge


@<TRIPOS>ATOM
      1 N01          1.9120    -5.2350    -0.8930 nb         1 OOU      -0.303000
      2 C01          0.5720    -5.2940    -0.7190 ca         1 OOU       0.179900
      3 N02         -0.2470    -4.2630    -0.4110 nb         1 OOU      -0.235000
      4 C02          0.3500    -3.0690    -0.2200 ca         1 OOU       0.150500
      5 C03          1.7190    -2.9240    -0.3130 ca         1 OOU      -0.242800
      6 C04          2.4860    -4.0400    -0.6970 ca         1 OOU       0.429900
      7 N03         -0.1900    -1.8100     0.0220 na         1 OOU      -0.175400
      8 C05          0.8070    -0.8200     0.0690 cc         1 OOU      -0.157100
      9 C06          2.0020    -1.5110    -0.0570 cd         1 OOU      -0.067400
     10 C07          3.3250    -0.8510    -0.0460 ca         1 OOU      -0.013800
     11 C08         -1.6520    -1.5990     0.1540 c6         1 OOU       0.082300
     12 N04          3.8020    -3.9970    -1.0120 nv         1 OOU      -1.067900
     13 C09         -1.9990    -0.9580     1.5240 c6         1 OOU      -0.084900
     14 C10         -3.5240    -0.7220     1.6570 c6         1 OOU      -0.089900
     15 C11         -4.0670     0.1530     0.4990 c6         1 OOU       0.174500
     16 C12         -3.7160    -0.4860    -0.8730 c6         1 OOU      -0.089900
     17 C13         -2.1910    -0.7280    -1.0110 c6         1 OOU      -0.084900
     18 N05         -5.5240     0.3350     0.6580 n7         1 OOU      -0.856400
     19 C14         -6.2170     1.3510    -0.1970 c3         1 OOU       0.113500
     20 C15          4.4650    -1.4850     0.4930 ca         1 OOU      -0.104500
     21 C16          5.7070    -0.8280     0.5250 ca         1 OOU      -0.116500
     22 C17          5.8230     0.4840     0.0430 ca         1 OOU       0.093100
     23 C18          4.6900     1.1390    -0.4740 ca         1 OOU      -0.116500
     24 C19          3.4480     0.4800    -0.5010 ca         1 OOU      -0.104500
     25 O01          7.0530     1.1020     0.0750 os         1 OOU      -0.257200
     26 C20          7.2120     2.4390     0.3650 ca         1 OOU       0.136100
     27 C21          8.1940     3.1720    -0.3220 ca         1 OOU      -0.161500
     28 C22          8.3880     4.5340    -0.0360 ca         1 OOU      -0.078000
     29 C23          7.6020     5.1620     0.9470 ca         1 OOU      -0.143000
     30 C24          6.6280     4.4290     1.6470 ca         1 OOU      -0.078000
     31 C25          6.4350     3.0660     1.3600 ca         1 OOU      -0.161500
     32 C26         -5.6470     2.8100    -0.0450 c          1 OOU       0.590100
     33 O02         -5.8130     3.5030     0.9530 o          1 OOU      -0.575100
     34 N06         -4.9390     3.2760    -1.1350 ns         1 OOU      -0.517900
     35 C27         -7.7450     1.3200     0.0810 c3         1 OOU      -0.080400
     36 C28         -8.4680    -0.0300    -0.2060 c3         1 OOU      -0.063700
     37 C29         -9.9590     0.0510     0.1940 c3         1 OOU      -0.090100
     38 C30         -8.3220    -0.4920    -1.6770 c3         1 OOU      -0.090100
     39 C31         -4.3160     4.5980    -1.2110 c3         1 OOU       0.096300
     40 H1           0.1000    -6.2630    -0.8730 h5         1 OOU       0.044100
     41 H2           0.5990     0.2320     0.2280 h4         1 OOU       0.219000
     42 H3          -2.1560    -2.5750     0.1050 h1         1 OOU       0.095700
     43 H4           4.1840    -4.7730    -1.5460 hn         1 OOU       0.495500
     44 H5           4.2180    -3.0850    -1.1720 hn         1 OOU       0.495500
     45 H6          -1.6520    -1.6090     2.3380 hc         1 OOU       0.051450
     46 H7          -1.4700    -0.0020     1.6420 hc         1 OOU       0.051450
     47 H8          -4.0460    -1.6890     1.6730 hc         1 OOU       0.050700
     48 H9          -3.7370    -0.2370     2.6200 hc         1 OOU       0.050700
     49 H10         -3.5740     1.1360     0.5630 h1         1 OOU       0.058700
     50 H11         -4.2510    -1.4390    -0.9910 hc         1 OOU       0.050700
     51 H12         -4.0470     0.1620    -1.6950 hc         1 OOU       0.050700
     52 H13         -1.6690     0.2390    -1.0330 hc         1 OOU       0.051450
     53 H14         -1.9790    -1.2190    -1.9710 hc         1 OOU       0.051450
     54 H15         -5.9830    -0.5720     0.5200 hn         1 OOU       0.425000
     55 H17         -6.0800     1.0830    -1.2520 h1         1 OOU       0.021700
     56 H18          4.3820    -2.4710     0.9420 ha         1 OOU       0.123000
     57 H19          6.5770    -1.3280     0.9430 ha         1 OOU       0.130000
     58 H20          4.7680     2.1540    -0.8560 ha         1 OOU       0.130000
     59 H21          2.5840     1.0010    -0.9060 ha         1 OOU       0.123000
     60 H22          8.8010     2.6830    -1.0800 ha         1 OOU       0.126000
     61 H23          9.1450     5.1020    -0.5730 ha         1 OOU       0.113000
     62 H24          7.7520     6.2160     1.1700 ha         1 OOU       0.115000
     63 H25          6.0260     4.9140     2.4120 ha         1 OOU       0.113000
     64 H26          5.6890     2.5000     1.9110 ha         1 OOU       0.126000
     65 H27         -4.8430     2.6470    -1.9240 hn         1 OOU       0.310500
     66 H28         -7.9120     1.5960     1.1300 hc         1 OOU       0.060200
     67 H29         -8.2200     2.1050    -0.5200 hc         1 OOU       0.060200
     68 H30         -8.0160    -0.8030     0.4270 hc         1 OOU       0.045700
     69 H31        -10.4860     0.8020    -0.4070 hc         1 OOU       0.034200
     70 H32        -10.4540    -0.9160     0.0470 hc         1 OOU       0.034200
     71 H33        -10.0620     0.3240     1.2520 hc         1 OOU       0.034200
     72 H34         -7.2760    -0.7010    -1.9260 hc         1 OOU       0.034200
     73 H35         -8.8900    -1.4150    -1.8500 hc         1 OOU       0.034200
     74 H36         -8.6970     0.2740    -2.3670 hc         1 OOU       0.034200
     75 H37         -5.0840     5.3760    -1.1060 h1         1 OOU       0.039367
     76 H38         -3.5760     4.7050    -0.4070 h1         1 OOU       0.039367
     77 H39         -3.8150     4.7130    -2.1810 h1         1 OOU       0.039367
@<TRIPOS>BOND
     1     1     2 ar  
     2     1     6 ar  
     3     2     3 ar  
     4     2    40 1   
     5     3     4 ar  
     6     4     5 ar  
     7     4     7 1   
     8     5     6 ar  
     9     5     9 1   
    10     6    12 1   
    11     7     8 1   
    12     7    11 1   
    13     8     9 2   
    14     8    41 1   
    15     9    10 1   
    16    10    20 ar  
    17    10    24 ar  
    18    11    13 1   
    19    11    17 1   
    20    11    42 1   
    21    12    43 1   
    22    12    44 1   
    23    13    14 1   
    24    13    45 1   
    25    13    46 1   
    26    14    15 1   
    27    14    47 1   
    28    14    48 1   
    29    15    16 1   
    30    15    18 1   
    31    15    49 1   
    32    16    17 1   
    33    16    50 1   
    34    16    51 1   
    35    17    52 1   
    36    17    53 1   
    37    18    19 1   
    38    18    54 1   
    39    19    32 1   
    40    19    35 1   
    41    19    55 1   
    42    20    21 ar  
    43    20    56 1   
    44    21    22 ar  
    45    21    57 1   
    46    22    23 ar  
    47    22    25 1   
    48    23    24 ar  
    49    23    58 1   
    50    24    59 1   
    51    25    26 1   
    52    26    27 ar  
    53    26    31 ar  
    54    27    28 ar  
    55    27    60 1   
    56    28    29 ar  
    57    28    61 1   
    58    29    30 ar  
    59    29    62 1   
    60    30    31 ar  
    61    30    63 1   
    62    31    64 1   
    63    32    33 2   
    64    32    34 1   
    65    34    39 1   
    66    34    65 1   
    67    35    36 1   
    68    35    66 1   
    69    35    67 1   
    70    36    37 1   
    71    36    38 1   
    72    36    68 1   
    73    37    69 1   
    74    37    70 1   
    75    37    71 1   
    76    38    72 1   
    77    38    73 1   
    78    38    74 1   
    79    39    75 1   
    80    39    76 1   
    81    39    77 1   
@<TRIPOS>SUBSTRUCTURE
     1 OOU         1 TEMP              0 ****  ****    0 ROOT
