@<TRIPOS>MOLECULE
OOU
   77    81     1     0     0
SMALL
bcc


@<TRIPOS>ATOM
      1 N01          1.8860    -5.2700    -0.2170 nb         1 OOU      -0.829000
      2 C01          0.5770    -5.2830     0.0210 ca         1 OOU       0.705900
      3 N02         -0.2380    -4.2560     0.1260 nb         1 OOU      -0.761000
      4 C02          0.3870    -3.0830    -0.0010 ca         1 OOU       0.478800
      5 C03          1.7600    -2.9020    -0.2110 ca         1 OOU      -0.373400
      6 C04          2.5030    -4.0930    -0.3570 ca         1 OOU       0.758200
      7 N03         -0.2060    -1.8630     0.0410 na         1 OOU      -0.146100
      8 C05          0.7600    -0.9070    -0.1350 cc         1 OOU      -0.107100
      9 C06          1.9900    -1.4880    -0.2880 cd         1 OOU      -0.067400
     10 C07          3.2500    -0.7560    -0.4430 ca         1 OOU      -0.013800
     11 C08         -1.6240    -1.6140     0.2570 c6         1 OOU       0.053000
     12 N04          3.8190    -4.1130    -0.6220 nv         1 OOU      -0.957500
     13 C09         -1.8530    -0.7560     1.4980 c6         1 OOU      -0.084900
     14 C10         -3.3410    -0.5100     1.7250 c6         1 OOU      -0.089900
     15 C11         -4.0030     0.1180     0.5030 c6         1 OOU       0.174500
     16 C12         -3.7600    -0.7550    -0.7300 c6         1 OOU      -0.089900
     17 C13         -2.2740    -0.9930    -0.9760 c6         1 OOU      -0.084900
     18 N05         -5.4090     0.3710     0.7730 n7         1 OOU      -0.801200
     19 C14         -6.0360     1.3320    -0.1030 c3         1 OOU       0.113500
     20 C15          4.3670    -1.0690     0.3360 ca         1 OOU      -0.122500
     21 C16          5.5500    -0.3570     0.2120 ca         1 OOU      -0.134500
     22 C17          5.6250     0.6880    -0.6960 ca         1 OOU       0.093100
     23 C18          4.5280     1.0260    -1.4740 ca         1 OOU      -0.134500
     24 C19          3.3540     0.3000    -1.3500 ca         1 OOU      -0.122500
     25 O01          6.8060     1.3690    -0.8510 os         1 OOU      -0.257200
     26 C20          7.0520     2.4590    -0.0710 ca         1 OOU       0.136100
     27 C21          8.2980     3.0590    -0.2360 ca         1 OOU      -0.179500
     28 C22          8.6270     4.1750     0.5170 ca         1 OOU      -0.096000
     29 C23          7.7240     4.7010     1.4350 ca         1 OOU      -0.161000
     30 C24          6.4870     4.0950     1.5900 ca         1 OOU      -0.096000
     31 C25          6.1400     2.9740     0.8430 ca         1 OOU      -0.179500
     32 C26         -5.6330     2.7440     0.3310 c          1 OOU       0.657100
     33 O02         -5.5760     3.0780     1.5050 o          1 OOU      -0.575100
     34 N06         -5.3920     3.5950    -0.6760 ns         1 OOU      -0.584900
     35 C27         -7.5620     1.2400    -0.0230 c3         1 OOU      -0.080400
     36 C28         -8.1810    -0.0600    -0.5470 c3         1 OOU      -0.063700
     37 C29         -9.6940    -0.0100    -0.3550 c3         1 OOU      -0.090100
     38 C30         -7.8390    -0.3170    -2.0110 c3         1 OOU      -0.090100
     39 C31         -5.0900     4.9900    -0.4590 c3         1 OOU       0.096300
     40 H1           0.1320    -6.2670     0.1300 h5         1 OOU       0.044100
     41 H2           0.5140     0.1430    -0.1080 h4         1 OOU       0.169000
     42 H3          -2.0720    -2.5960     0.4280 h1         1 OOU       0.095700
     43 H4           4.2470    -4.9940    -0.8530 hn         1 OOU       0.440300
     44 H5           4.2960    -3.2840    -0.9300 hn         1 OOU       0.440300
     45 H6          -1.4090    -1.2420     2.3690 hc         1 OOU       0.051450
     46 H7          -1.3450     0.2070     1.3790 hc         1 OOU       0.051450
     47 H8          -3.8380    -1.4600     1.9560 hc         1 OOU       0.050700
     48 H9          -3.4820     0.1400     2.5900 hc         1 OOU       0.050700
     49 H10         -3.5220     1.0900     0.3310 h1         1 OOU       0.058700
     50 H11         -4.2630    -1.7180    -0.5800 hc         1 OOU       0.050700
     51 H12         -4.2090    -0.3020    -1.6170 hc         1 OOU       0.050700
     52 H13         -1.7840    -0.0420    -1.2130 hc         1 OOU       0.051450
     53 H14         -2.1320    -1.6490    -1.8380 hc         1 OOU       0.051450
     54 H15         -5.9180    -0.5040     0.7640 hn         1 OOU       0.369800
     55 H17         -5.7370     1.2010    -1.1560 h1         1 OOU       0.021700
     56 H18          4.3070    -1.8660     1.0670 ha         1 OOU       0.141000
     57 H19          6.4070    -0.6120     0.8240 ha         1 OOU       0.148000
     58 H20          4.5950     1.8410    -2.1830 ha         1 OOU       0.148000
     59 H21          2.5080     0.5520    -1.9770 ha         1 OOU       0.141000
     60 H22          9.0010     2.6490    -0.9490 ha         1 OOU       0.144000
     61 H23          9.5980     4.6330     0.3850 ha         1 OOU       0.131000
     62 H24          7.9840     5.5720     2.0210 ha         1 OOU       0.133000
     63 H25          5.7730     4.4930     2.2990 ha         1 OOU       0.131000
     64 H26          5.1670     2.5230     0.9830 ha         1 OOU       0.144000
     65 H27         -5.4560     3.2630    -1.6230 hn         1 OOU       0.310500
     66 H28         -7.8620     1.3890     1.0190 hc         1 OOU       0.060200
     67 H29         -7.9890     2.0730    -0.5930 hc         1 OOU       0.060200
     68 H30         -7.8080    -0.9040     0.0440 hc         1 OOU       0.045700
     69 H31        -10.1330     0.8010    -0.9410 hc         1 OOU       0.034200
     70 H32        -10.1640    -0.9420    -0.6730 hc         1 OOU       0.034200
     71 H33         -9.9600     0.1560     0.6910 hc         1 OOU       0.034200
     72 H34         -6.7710    -0.4670    -2.1730 hc         1 OOU       0.034200
     73 H35         -8.3490    -1.2100    -2.3760 hc         1 OOU       0.034200
     74 H36         -8.1540     0.5220    -2.6370 hc         1 OOU       0.034200
     75 H37         -5.9360     5.5290    -0.0290 h1         1 OOU       0.039367
     76 H38         -4.2350     5.1120     0.2050 h1         1 OOU       0.039367
     77 H39         -4.8470     5.4440    -1.4160 h1         1 OOU       0.039367
@<TRIPOS>BOND
     1     1     2 ar  
     2     1     6 ar  
     3     2     3 ar  
     4     2    40 1   
     5     3     4 ar  
     6     4     5 ar  
     7     4     7 1   
     8     5     6 ar  
     9     5     9 1   
    10     6    12 1   
    11     7     8 1   
    12     7    11 1   
    13     8     9 2   
    14     8    41 1   
    15     9    10 1   
    16    10    20 ar  
    17    10    24 ar  
    18    11    13 1   
    19    11    17 1   
    20    11    42 1   
    21    12    43 1   
    22    12    44 1   
    23    13    14 1   
    24    13    45 1   
    25    13    46 1   
    26    14    15 1   
    27    14    47 1   
    28    14    48 1   
    29    15    16 1   
    30    15    18 1   
    31    15    49 1   
    32    16    17 1   
    33    16    50 1   
    34    16    51 1   
    35    17    52 1   
    36    17    53 1   
    37    18    19 1   
    38    18    54 1   
    39    19    32 1   
    40    19    35 1   
    41    19    55 1   
    42    20    21 ar  
    43    20    56 1   
    44    21    22 ar  
    45    21    57 1   
    46    22    23 ar  
    47    22    25 1   
    48    23    24 ar  
    49    23    58 1   
    50    24    59 1   
    51    25    26 1   
    52    26    27 ar  
    53    26    31 ar  
    54    27    28 ar  
    55    27    60 1   
    56    28    29 ar  
    57    28    61 1   
    58    29    30 ar  
    59    29    62 1   
    60    30    31 ar  
    61    30    63 1   
    62    31    64 1   
    63    32    33 2   
    64    32    34 1   
    65    34    39 1   
    66    34    65 1   
    67    35    36 1   
    68    35    66 1   
    69    35    67 1   
    70    36    37 1   
    71    36    38 1   
    72    36    68 1   
    73    37    69 1   
    74    37    70 1   
    75    37    71 1   
    76    38    72 1   
    77    38    73 1   
    78    38    74 1   
    79    39    75 1   
    80    39    76 1   
    81    39    77 1   
@<TRIPOS>SUBSTRUCTURE
     1 OOU         1 TEMP              0 ****  ****    0 ROOT
