@<TRIPOS>MOLECULE
OOV
   80    84     1     0     0
SMALL
No Charge or Current Charge


@<TRIPOS>ATOM
      1 N01         -2.5520    -4.5020     0.6570 nb         1 OOV      -0.301000
      2 C01         -1.2370    -4.7710     0.4910 ca         1 OOV       0.177900
      3 N02         -0.2640    -3.8820     0.1930 nb         1 OOV      -0.232000
      4 C02         -0.6640    -2.6080     0.0030 ca         1 OOV       0.148500
      5 C03         -1.9940    -2.2490     0.0880 ca         1 OOV      -0.241800
      6 C04         -2.9300    -3.2310     0.4620 ca         1 OOV       0.425900
      7 N03          0.0680    -1.4490    -0.2300 na         1 OOV      -0.175400
      8 C05         -0.7600    -0.3140    -0.2790 cc         1 OOV      -0.158100
      9 C06         -2.0490    -0.8080    -0.1640 cd         1 OOV      -0.063400
     10 C07         -3.2530     0.0510    -0.1800 ca         1 OOV      -0.031800
     11 C08         -3.1660     1.3860     0.2720 ca         1 OOV      -0.091000
     12 C09         -4.2910     2.2300     0.2400 ca         1 OOV      -0.137500
     13 C10         -5.5120     1.7580    -0.2610 ca         1 OOV       0.113100
     14 C11         -5.5970     0.4480    -0.7670 ca         1 OOV      -0.137500
     15 C12         -4.4720    -0.3950    -0.7310 ca         1 OOV      -0.091000
     16 O01         -6.5930     2.6100    -0.3000 os         1 OOV      -0.255200
     17 C13         -7.8850     2.1910    -0.0730 ca         1 OOV       0.122100
     18 C14         -8.1770     1.2360     0.9210 ca         1 OOV      -0.145500
     19 C15         -9.5070     0.8360     1.1430 ca         1 OOV      -0.086000
     20 C16        -10.5450     1.3970     0.3790 ca         1 OOV      -0.131000
     21 C17        -10.2570     2.3610    -0.6040 ca         1 OOV      -0.086000
     22 C18         -8.9270     2.7600    -0.8250 ca         1 OOV      -0.145500
     23 C19          1.5470    -1.4700    -0.3530 c6         1 OOV       0.082300
     24 C20          2.0000    -0.8870    -1.7170 c6         1 OOV      -0.087400
     25 C21          3.5440    -0.8960    -1.8410 c6         1 OOV      -0.074900
     26 C22          4.2140    -0.1240    -0.6750 c6         1 OOV       0.171500
     27 C23          3.7530    -0.7030     0.6930 c6         1 OOV      -0.074900
     28 C24          2.2080    -0.6980     0.8190 c6         1 OOV      -0.087400
     29 N04          5.6830    -0.1750    -0.8280 n7         1 OOV      -0.851400
     30 C25          6.5120     0.7500     0.0160 c3         1 OOV       0.107500
     31 C26          8.0100     0.3330    -0.0550 c3         1 OOV      -0.066400
     32 C27          6.3450     2.2730    -0.3660 c          1 OOV       0.561100
     33 O02          6.0270     2.6060    -1.5060 o          1 OOV      -0.615100
     34 N05          6.5770     3.2650     0.6200 n          1 OOV      -0.404800
     35 C28          6.4400     4.6990     0.2750 c3         1 OOV       0.084800
     36 C29          6.8790     2.9220     2.0300 c3         1 OOV       0.084800
     37 N06         -4.2250    -2.9820     0.7680 nv         1 OOV      -1.064900
     38 C30          8.4610    -0.7300     0.9890 c3         1 OOV      -0.052700
     39 C31          7.7250    -2.0840     0.8490 c3         1 OOV      -0.088100
     40 C32          9.9920    -0.9360     0.9390 c3         1 OOV      -0.088100
     41 H1          -0.9260    -5.8030     0.6440 h5         1 OOV       0.044100
     42 H2          -0.3870     0.6930    -0.4340 h4         1 OOV       0.220000
     43 H3          -2.2320     1.7690     0.6760 ha         1 OOV       0.122500
     44 H4          -4.2160     3.2510     0.6070 ha         1 OOV       0.129500
     45 H5          -6.5240     0.0890    -1.2070 ha         1 OOV       0.129500
     46 H6          -4.5390    -1.3790    -1.1880 ha         1 OOV       0.122500
     47 H7          -7.3790     0.8070     1.5220 ha         1 OOV       0.126000
     48 H8          -9.7330     0.0960     1.9080 ha         1 OOV       0.114500
     49 H9         -11.5740     1.0890     0.5510 ha         1 OOV       0.116000
     50 H10        -11.0620     2.7980    -1.1910 ha         1 OOV       0.114500
     51 H11         -8.7010     3.5060    -1.5830 ha         1 OOV       0.126000
     52 H12          1.8900    -2.5140    -0.3050 h1         1 OOV       0.095700
     53 H13          1.5590    -1.4710    -2.5360 hc         1 OOV       0.051450
     54 H14          1.6310     0.1420    -1.8330 hc         1 OOV       0.051450
     55 H15          3.9050    -1.9340    -1.8560 hc         1 OOV       0.052200
     56 H16          3.8360    -0.4500    -2.8010 hc         1 OOV       0.052200
     57 H17          3.8890     0.9260    -0.7370 h1         1 OOV       0.030700
     58 H18          4.1280    -1.7300     0.8070 hc         1 OOV       0.052200
     59 H19          4.1780    -0.1210     1.5210 hc         1 OOV       0.052200
     60 H20          1.8470     0.3390     0.8410 hc         1 OOV       0.051450
     61 H21          1.9140    -1.1520     1.7760 hc         1 OOV       0.051450
     62 H22          5.8990     0.0530    -1.8070 hn         1 OOV       0.435000
     63 H24          6.2020     0.6540     1.0630 h1         1 OOV       0.067700
     64 H25          8.2510    -0.0130    -1.0680 hc         1 OOV       0.048700
     65 H26          8.6230     1.2280     0.1030 hc         1 OOV       0.048700
     66 H27          6.7120     5.3370     1.1260 h1         1 OOV       0.041867
     67 H28          7.0990     4.9410    -0.5680 h1         1 OOV       0.041867
     68 H29          5.4010     4.9120    -0.0080 h1         1 OOV       0.041867
     69 H30          7.0790     3.8280     2.6170 h1         1 OOV       0.041867
     70 H31          6.0220     2.4010     2.4770 h1         1 OOV       0.041867
     71 H32          7.7640     2.2760     2.0810 h1         1 OOV       0.041867
     72 H33         -4.7310    -3.6900     1.2930 hn         1 OOV       0.491500
     73 H34         -4.4940    -2.0160     0.9250 hn         1 OOV       0.491500
     74 H35          8.2250    -0.3350     1.9860 hc         1 OOV       0.035700
     75 H36          7.8500    -2.4940    -0.1610 hc         1 OOV       0.035200
     76 H37          8.1160    -2.8150     1.5670 hc         1 OOV       0.035200
     77 H38          6.6530    -1.9720     1.0480 hc         1 OOV       0.035200
     78 H39         10.5180     0.0130     1.1050 hc         1 OOV       0.035200
     79 H40         10.3160    -1.6390     1.7160 hc         1 OOV       0.035200
     80 H41         10.3010    -1.3340    -0.0350 hc         1 OOV       0.035200
@<TRIPOS>BOND
     1     1     2 ar  
     2     1     6 ar  
     3     2     3 ar  
     4     2    41 1   
     5     3     4 ar  
     6     4     5 ar  
     7     4     7 1   
     8     5     6 ar  
     9     5     9 1   
    10     6    37 1   
    11     7     8 1   
    12     7    23 1   
    13     8     9 2   
    14     8    42 1   
    15     9    10 1   
    16    10    11 ar  
    17    10    15 ar  
    18    11    12 ar  
    19    11    43 1   
    20    12    13 ar  
    21    12    44 1   
    22    13    14 ar  
    23    13    16 1   
    24    14    15 ar  
    25    14    45 1   
    26    15    46 1   
    27    16    17 1   
    28    17    18 ar  
    29    17    22 ar  
    30    18    19 ar  
    31    18    47 1   
    32    19    20 ar  
    33    19    48 1   
    34    20    21 ar  
    35    20    49 1   
    36    21    22 ar  
    37    21    50 1   
    38    22    51 1   
    39    23    24 1   
    40    23    28 1   
    41    23    52 1   
    42    24    25 1   
    43    24    53 1   
    44    24    54 1   
    45    25    26 1   
    46    25    55 1   
    47    25    56 1   
    48    26    27 1   
    49    26    29 1   
    50    26    57 1   
    51    27    28 1   
    52    27    58 1   
    53    27    59 1   
    54    28    60 1   
    55    28    61 1   
    56    29    30 1   
    57    29    62 1   
    58    30    31 1   
    59    30    32 1   
    60    30    63 1   
    61    31    38 1   
    62    31    64 1   
    63    31    65 1   
    64    32    33 2   
    65    32    34 1   
    66    34    35 1   
    67    34    36 1   
    68    35    66 1   
    69    35    67 1   
    70    35    68 1   
    71    36    69 1   
    72    36    70 1   
    73    36    71 1   
    74    37    72 1   
    75    37    73 1   
    76    38    39 1   
    77    38    40 1   
    78    38    74 1   
    79    39    75 1   
    80    39    76 1   
    81    39    77 1   
    82    40    78 1   
    83    40    79 1   
    84    40    80 1   
@<TRIPOS>SUBSTRUCTURE
     1 OOV         1 TEMP              0 ****  ****    0 ROOT
