@<TRIPOS>MOLECULE
OOV
   80    84     1     0     0
SMALL
bcc


@<TRIPOS>ATOM
      1 N01         -2.4970    -4.6560     0.1270 nb         1 OOV      -0.827000
      2 C01         -1.1910    -4.8870     0.0130 ca         1 OOV       0.703900
      3 N02         -0.2150    -4.0060    -0.0540 nb         1 OOV      -0.758000
      4 C02         -0.6520    -2.7450    -0.0280 ca         1 OOV       0.476800
      5 C03         -1.9920    -2.3410     0.0450 ca         1 OOV      -0.372400
      6 C04         -2.9250    -3.3920     0.1660 ca         1 OOV       0.754200
      7 N03          0.1310    -1.6370    -0.0550 na         1 OOV      -0.146100
      8 C05         -0.6840    -0.5340    -0.0130 cc         1 OOV      -0.108100
      9 C06         -1.9990    -0.9080     0.0470 cd         1 OOV      -0.063400
     10 C07         -3.1360     0.0170     0.0840 ca         1 OOV      -0.031800
     11 C08         -3.1510     1.0900     0.9750 ca         1 OOV      -0.109000
     12 C09         -4.2100     1.9830     1.0070 ca         1 OOV      -0.155500
     13 C10         -5.2770     1.8150     0.1370 ca         1 OOV       0.113100
     14 C11         -5.2830     0.7590    -0.7670 ca         1 OOV      -0.155500
     15 C12         -4.2180    -0.1260    -0.7880 ca         1 OOV      -0.109000
     16 O01         -6.2740     2.7490     0.1640 os         1 OOV      -0.255200
     17 C13         -7.5810     2.3490     0.1530 ca         1 OOV       0.122100
     18 C14         -8.0180     1.2110     0.8220 ca         1 OOV      -0.163500
     19 C15         -9.3690     0.8940     0.8090 ca         1 OOV      -0.104000
     20 C16        -10.2830     1.7030     0.1470 ca         1 OOV      -0.149000
     21 C17         -9.8340     2.8420    -0.5090 ca         1 OOV      -0.104000
     22 C18         -8.4850     3.1670    -0.5130 ca         1 OOV      -0.163500
     23 C19          1.5810    -1.6250    -0.1610 c6         1 OOV       0.053000
     24 C20          2.0350    -1.1390    -1.5350 c6         1 OOV      -0.087400
     25 C21          3.5560    -1.1400    -1.6310 c6         1 OOV      -0.074900
     26 C22          4.1860    -0.2940    -0.5300 c6         1 OOV       0.171500
     27 C23          3.7370    -0.8160     0.8330 c6         1 OOV      -0.074900
     28 C24          2.2170    -0.8030     0.9560 c6         1 OOV      -0.087400
     29 N04          5.6350    -0.3260    -0.6620 n7         1 OOV      -0.796200
     30 C25          6.3360     0.7100     0.0620 c3         1 OOV       0.107500
     31 C26          7.8540     0.4680     0.0670 c3         1 OOV      -0.066400
     32 C27          6.0730     2.0970    -0.5520 c          1 OOV       0.628100
     33 O02          5.8680     2.1860    -1.7580 o          1 OOV      -0.615100
     34 N05          6.0910     3.1840     0.2450 n          1 OOV      -0.471800
     35 C28          5.8570     4.4930    -0.3310 c3         1 OOV       0.084800
     36 C29          6.5080     3.2070     1.6310 c3         1 OOV       0.084800
     37 N06         -4.2470    -3.1890     0.3050 nv         1 OOV      -0.954500
     38 C30          8.3540    -0.5700     1.0750 c3         1 OOV      -0.052700
     39 C31          7.9210    -1.9960     0.7520 c3         1 OOV      -0.088100
     40 C32          9.8750    -0.4940     1.1770 c3         1 OOV      -0.088100
     41 H1          -0.9010    -5.9320    -0.0180 h5         1 OOV       0.044100
     42 H2          -0.2740     0.4630    -0.0560 h4         1 OOV       0.170000
     43 H3          -2.3320     1.2180     1.6720 ha         1 OOV       0.140500
     44 H4          -4.2120     2.8060     1.7110 ha         1 OOV       0.147500
     45 H5          -6.1010     0.6310    -1.4650 ha         1 OOV       0.147500
     46 H6          -4.2190    -0.9260    -1.5180 ha         1 OOV       0.140500
     47 H7          -7.3200     0.5760     1.3530 ha         1 OOV       0.144000
     48 H8          -9.7070     0.0060     1.3280 ha         1 OOV       0.132500
     49 H9         -11.3340     1.4490     0.1430 ha         1 OOV       0.134000
     50 H10        -10.5340     3.4830    -1.0280 ha         1 OOV       0.132500
     51 H11         -8.1320     4.0530    -1.0260 ha         1 OOV       0.144000
     52 H12          1.8930    -2.6660    -0.0420 h1         1 OOV       0.095700
     53 H13          1.6060    -1.7760    -2.3120 hc         1 OOV       0.051450
     54 H14          1.6550    -0.1270    -1.7110 hc         1 OOV       0.051450
     55 H15          3.9310    -2.1660    -1.5530 hc         1 OOV       0.052200
     56 H16          3.8610    -0.7630    -2.6110 hc         1 OOV       0.052200
     57 H17          3.7880     0.7310    -0.6430 h1         1 OOV       0.030700
     58 H18          4.1160    -1.8350     0.9650 hc         1 OOV       0.052200
     59 H19          4.1620    -0.2200     1.6440 hc         1 OOV       0.052200
     60 H20          1.8620     0.2310     0.9050 hc         1 OOV       0.051450
     61 H21          1.9090    -1.1980     1.9260 hc         1 OOV       0.051450
     62 H22          5.8760    -0.2380    -1.6430 hn         1 OOV       0.379800
     63 H24          5.9860     0.6830     1.0950 h1         1 OOV       0.067700
     64 H25          8.1750     0.1970    -0.9460 hc         1 OOV       0.048700
     65 H26          8.3560     1.4150     0.2950 hc         1 OOV       0.048700
     66 H27          5.3890     5.1300     0.4190 h1         1 OOV       0.041867
     67 H28          6.7890     4.9690    -0.6470 h1         1 OOV       0.041867
     68 H29          5.1940     4.4270    -1.1880 h1         1 OOV       0.041867
     69 H30          7.3880     3.8430     1.7480 h1         1 OOV       0.041867
     70 H31          5.7140     3.6100     2.2620 h1         1 OOV       0.041867
     71 H32          6.7680     2.2230     2.0060 h1         1 OOV       0.041867
     72 H33         -4.8230    -3.9790     0.5440 hn         1 OOV       0.436300
     73 H34         -4.5990    -2.2850     0.5670 hn         1 OOV       0.436300
     74 H35          7.9390    -0.3000     2.0550 hc         1 OOV       0.035700
     75 H36          8.2940    -2.2960    -0.2310 hc         1 OOV       0.035200
     76 H37          8.3270    -2.6950     1.4860 hc         1 OOV       0.035200
     77 H38          6.8390    -2.1020     0.7360 hc         1 OOV       0.035200
     78 H39         10.2100     0.5070     1.4550 hc         1 OOV       0.035200
     79 H40         10.2540    -1.1930     1.9250 hc         1 OOV       0.035200
     80 H41         10.3440    -0.7480     0.2220 hc         1 OOV       0.035200
@<TRIPOS>BOND
     1     1     2 ar  
     2     1     6 ar  
     3     2     3 ar  
     4     2    41 1   
     5     3     4 ar  
     6     4     5 ar  
     7     4     7 1   
     8     5     6 ar  
     9     5     9 1   
    10     6    37 1   
    11     7     8 1   
    12     7    23 1   
    13     8     9 2   
    14     8    42 1   
    15     9    10 1   
    16    10    11 ar  
    17    10    15 ar  
    18    11    12 ar  
    19    11    43 1   
    20    12    13 ar  
    21    12    44 1   
    22    13    14 ar  
    23    13    16 1   
    24    14    15 ar  
    25    14    45 1   
    26    15    46 1   
    27    16    17 1   
    28    17    18 ar  
    29    17    22 ar  
    30    18    19 ar  
    31    18    47 1   
    32    19    20 ar  
    33    19    48 1   
    34    20    21 ar  
    35    20    49 1   
    36    21    22 ar  
    37    21    50 1   
    38    22    51 1   
    39    23    24 1   
    40    23    28 1   
    41    23    52 1   
    42    24    25 1   
    43    24    53 1   
    44    24    54 1   
    45    25    26 1   
    46    25    55 1   
    47    25    56 1   
    48    26    27 1   
    49    26    29 1   
    50    26    57 1   
    51    27    28 1   
    52    27    58 1   
    53    27    59 1   
    54    28    60 1   
    55    28    61 1   
    56    29    30 1   
    57    29    62 1   
    58    30    31 1   
    59    30    32 1   
    60    30    63 1   
    61    31    38 1   
    62    31    64 1   
    63    31    65 1   
    64    32    33 2   
    65    32    34 1   
    66    34    35 1   
    67    34    36 1   
    68    35    66 1   
    69    35    67 1   
    70    35    68 1   
    71    36    69 1   
    72    36    70 1   
    73    36    71 1   
    74    37    72 1   
    75    37    73 1   
    76    38    39 1   
    77    38    40 1   
    78    38    74 1   
    79    39    75 1   
    80    39    76 1   
    81    39    77 1   
    82    40    78 1   
    83    40    79 1   
    84    40    80 1   
@<TRIPOS>SUBSTRUCTURE
     1 OOV         1 TEMP              0 ****  ****    0 ROOT
