@<TRIPOS>MOLECULE
OOX
   44    48     1     0     0
SMALL
abcg2


@<TRIPOS>ATOM
      1 N1          -7.3760     5.0650   -37.4120 n3         1 OOX      -0.754600
      2 C4          -9.5240     6.9110   -37.6940 c5         1 OOX      -0.043700
      3 C5         -10.7880     7.6390   -38.1900 c5         1 OOX       0.066300
      4 C6         -10.4590     8.9080   -38.9830 c          1 OOX       0.554100
      5 C7          -9.2880     8.8070   -39.9170 c6         1 OOX      -0.175400
      6 C8          -8.0480     8.3660   -39.1290 c6         1 OOX      -0.059400
      7 C10         -7.1060     6.4820   -37.6490 c6         1 OOX       0.156500
      8 C13         -9.3080     7.7100   -36.4520 ca         1 OOX      -0.144300
      9 C15        -10.6220     8.9870   -34.8990 ca         1 OOX       0.132100
     10 C17         -8.2230     8.6200   -34.5840 ca         1 OOX      -0.098000
     11 C1          -6.2430     4.3230   -36.9100 c3         1 OOX       0.163100
     12 C11         -6.8730     7.3510   -36.3910 c6         1 OOX      -0.043100
     13 C12         -8.1320     7.8810   -35.7610 ca         1 OOX      -0.066300
     14 C14        -10.5100     8.2600   -36.0770 ca         1 OOX       0.091100
     15 C16         -9.4450     9.1420   -34.1570 ca         1 OOX      -0.166000
     16 C18        -11.9460    10.2380   -33.3890 c3         1 OOX       0.146900
     17 C2          -8.5870     4.8200   -36.6430 c6         1 OOX       0.170800
     18 C3          -9.8030     5.4500   -37.3090 c6         1 OOX      -0.064400
     19 C9          -8.2570     6.9690   -38.5660 c6         1 OOX       0.212000
     20 O1         -11.1020     9.9170   -38.8270 o          1 OOX      -0.487100
     21 O2         -11.8320     9.4840   -34.5780 os         1 OOX      -0.316100
     22 O3         -11.4880     8.0200   -36.9950 os         1 OOX      -0.291100
     23 O4          -8.3470     6.0930   -39.6650 oh         1 OOX      -0.664000
     24 H5         -11.4430     7.0030   -38.7940 h1         1 OOX       0.105700
     25 H71         -9.1280     9.7690   -40.4030 hc         1 OOX       0.076200
     26 H72         -9.5080     8.0720   -40.6960 hc         1 OOX       0.076200
     27 H82         -7.1730     8.3670   -39.7820 hc         1 OOX       0.058700
     28 H81         -7.8470     9.0860   -38.3330 hc         1 OOX       0.058700
     29 H10         -6.1840     6.5220   -38.2380 h1         1 OOX       0.066700
     30 H17         -7.3410     8.8070   -33.9840 ha         1 OOX       0.114000
     31 H13         -6.4580     3.2540   -36.9480 h1         1 OOX       0.033700
     32 H12         -5.3690     4.5110   -37.5350 h1         1 OOX       0.033700
     33 H11         -5.9760     4.5670   -35.8730 h1         1 OOX       0.033700
     34 H112        -6.2790     6.7870   -35.6660 hc         1 OOX       0.054700
     35 H111        -6.2430     8.1970   -36.6790 hc         1 OOX       0.054700
     36 H16         -9.4600     9.7070   -33.2330 ha         1 OOX       0.118000
     37 H181       -12.9860    10.5440   -33.3140 h1         1 OOX       0.040367
     38 H183       -11.6880     9.6490   -32.5040 h1         1 OOX       0.040367
     39 H182       -11.3170    11.1320   -33.4100 h1         1 OOX       0.040367
     40 H21         -8.7350     3.7400   -36.5780 h1         1 OOX       0.041700
     41 H22         -8.4920     5.1780   -35.6070 h1         1 OOX       0.041700
     42 H31        -10.6530     5.3940   -36.6260 hc         1 OOX       0.060200
     43 H32        -10.0840     4.8850   -38.2020 hc         1 OOX       0.060200
     44 H4          -8.0490     5.2320   -39.3270 ho         1 OOX       0.474000
@<TRIPOS>BOND
     1     1     7 1   
     2     1    11 1   
     3     1    17 1   
     4     2     3 1   
     5     2     8 1   
     6     2    18 1   
     7     2    19 1   
     8     3     4 1   
     9     3    22 1   
    10     3    24 1   
    11     4     5 1   
    12     4    20 2   
    13     5     6 1   
    14     5    25 1   
    15     5    26 1   
    16     6    19 1   
    17     6    27 1   
    18     6    28 1   
    19     7    12 1   
    20     7    19 1   
    21     7    29 1   
    22     8    13 ar  
    23     8    14 ar  
    24     9    14 ar  
    25     9    15 ar  
    26     9    21 1   
    27    10    13 ar  
    28    10    15 ar  
    29    10    30 1   
    30    11    31 1   
    31    11    32 1   
    32    11    33 1   
    33    12    13 1   
    34    12    34 1   
    35    12    35 1   
    36    14    22 1   
    37    15    36 1   
    38    16    21 1   
    39    16    37 1   
    40    16    38 1   
    41    16    39 1   
    42    17    18 1   
    43    17    40 1   
    44    17    41 1   
    45    18    42 1   
    46    18    43 1   
    47    19    23 1   
    48    23    44 1   
@<TRIPOS>SUBSTRUCTURE
     1 OOX         1 TEMP              0 ****  ****    0 ROOT
