@<TRIPOS>MOLECULE
OOX
   44    48     1     0     0
SMALL
No Charge or Current Charge


@<TRIPOS>ATOM
      1 N1          -7.3030     4.9810   -37.4510 n3         1 OOX      -0.754600
      2 C4          -9.5540     6.8890   -37.7240 c5         1 OOX      -0.043700
      3 C5         -10.8640     7.6420   -38.2080 c5         1 OOX       0.066300
      4 C6         -10.5290     8.9380   -39.0290 c          1 OOX       0.554100
      5 C7          -9.2860     8.8980   -39.9310 c6         1 OOX      -0.175400
      6 C8          -8.0330     8.3930   -39.1670 c6         1 OOX      -0.059400
      7 C10         -7.0730     6.4530   -37.6940 c6         1 OOX       0.156500
      8 C13         -9.3820     7.6770   -36.4760 ca         1 OOX      -0.144300
      9 C15        -10.6410     8.9990   -34.8870 ca         1 OOX       0.132100
     10 C17         -8.2250     8.6180   -34.5940 ca         1 OOX      -0.098000
     11 C1          -6.1320     4.2640   -36.8960 c3         1 OOX       0.163100
     12 C11         -6.8840     7.3050   -36.3780 c6         1 OOX      -0.043100
     13 C12         -8.1860     7.8620   -35.7830 ca         1 OOX      -0.066300
     14 C14        -10.5630     8.2490   -36.0760 ca         1 OOX       0.091100
     15 C16         -9.4470     9.1720   -34.1370 ca         1 OOX      -0.166000
     16 C18        -11.9930    10.3360   -33.3140 c3         1 OOX       0.146900
     17 C2          -8.5550     4.7270   -36.6760 c6         1 OOX       0.170800
     18 C3          -9.8010     5.3910   -37.3280 c6         1 OOX      -0.064400
     19 C9          -8.2570     6.9670   -38.5960 c6         1 OOX       0.212000
     20 O1         -11.1580     9.9880   -38.9370 o          1 OOX      -0.487100
     21 O2         -11.8520     9.5510   -34.5100 os         1 OOX      -0.316100
     22 O3         -11.5830     8.0280   -36.9720 os         1 OOX      -0.291100
     23 O4          -8.3490     6.0420   -39.6810 oh         1 OOX      -0.664000
     24 H5         -11.5000     7.0090   -38.8380 h1         1 OOX       0.105700
     25 H71         -9.1190     9.8790   -40.3940 hc         1 OOX       0.076200
     26 H72         -9.4900     8.1600   -40.7180 hc         1 OOX       0.076200
     27 H82         -7.1630     8.3910   -39.8390 hc         1 OOX       0.058700
     28 H81         -7.7940     9.1010   -38.3620 hc         1 OOX       0.058700
     29 H10         -6.1470     6.5620   -38.2790 h1         1 OOX       0.066700
     30 H17         -7.3100     8.7860   -34.0280 ha         1 OOX       0.114000
     31 H13         -6.3100     3.1800   -36.8990 h1         1 OOX       0.033700
     32 H12         -5.2350     4.4590   -37.4990 h1         1 OOX       0.033700
     33 H11         -5.9270     4.5670   -35.8610 h1         1 OOX       0.033700
     34 H112        -6.3410     6.7350   -35.6140 hc         1 OOX       0.054700
     35 H111        -6.2340     8.1570   -36.6150 hc         1 OOX       0.054700
     36 H16         -9.4420     9.7480   -33.2170 ha         1 OOX       0.118000
     37 H181       -13.0310    10.6740   -33.2020 h1         1 OOX       0.040367
     38 H183       -11.7300     9.7450   -32.4270 h1         1 OOX       0.040367
     39 H182       -11.3490    11.2230   -33.3510 h1         1 OOX       0.040367
     40 H21         -8.7390     3.6450   -36.5920 h1         1 OOX       0.041700
     41 H22         -8.4470     5.1030   -35.6480 h1         1 OOX       0.041700
     42 H31        -10.6460     5.3200   -36.6300 hc         1 OOX       0.060200
     43 H32        -10.1020     4.8110   -38.2100 hc         1 OOX       0.060200
     44 H4          -8.0120     5.2210   -39.2410 ho         1 OOX       0.474000
@<TRIPOS>BOND
     1     1     7 1   
     2     1    11 1   
     3     1    17 1   
     4     2     3 1   
     5     2     8 1   
     6     2    18 1   
     7     2    19 1   
     8     3     4 1   
     9     3    22 1   
    10     3    24 1   
    11     4     5 1   
    12     4    20 2   
    13     5     6 1   
    14     5    25 1   
    15     5    26 1   
    16     6    19 1   
    17     6    27 1   
    18     6    28 1   
    19     7    12 1   
    20     7    19 1   
    21     7    29 1   
    22     8    13 ar  
    23     8    14 ar  
    24     9    14 ar  
    25     9    15 ar  
    26     9    21 1   
    27    10    13 ar  
    28    10    15 ar  
    29    10    30 1   
    30    11    31 1   
    31    11    32 1   
    32    11    33 1   
    33    12    13 1   
    34    12    34 1   
    35    12    35 1   
    36    14    22 1   
    37    15    36 1   
    38    16    21 1   
    39    16    37 1   
    40    16    38 1   
    41    16    39 1   
    42    17    18 1   
    43    17    40 1   
    44    17    41 1   
    45    18    42 1   
    46    18    43 1   
    47    19    23 1   
    48    23    44 1   
@<TRIPOS>SUBSTRUCTURE
     1 OOX         1 TEMP              0 ****  ****    0 ROOT
