@<TRIPOS>MOLECULE
OOY
   63    67     1     0     0
SMALL
abcg2


@<TRIPOS>ATOM
      1 C4           2.6860     2.1950    -0.1940 ca         1 OOY      -0.141000
      2 C14          2.2080    -4.0600     1.2430 c6         1 OOY       0.150600
      3 C5           3.8000     1.3700    -0.0350 ca         1 OOY       0.268000
      4 C6           5.3110     3.2630    -0.2960 c6         1 OOY       0.156800
      5 C11          2.2910    -0.5340     0.0250 ca         1 OOY       0.196000
      6 C7           6.7830     3.5300    -0.5560 c6         1 OOY       0.148600
      7 C8           7.4150     1.7360     0.7630 c6         1 OOY       0.148600
      8 C9           5.9690     1.4050     1.0710 c6         1 OOY       0.156800
      9 C10          3.5670    -0.0080     0.0640 ca         1 OOY      -0.144000
     10 C12          2.2570    -2.6220    -1.1660 c6         1 OOY       0.139300
     11 C13          1.7990    -4.0620    -1.0460 c6         1 OOY       0.150600
     12 N2           5.1100     1.8550    -0.0170 nh         1 OOY      -0.782400
     13 C3           1.3980     1.6770    -0.2500 ca         1 OOY      -0.104000
     14 N3           2.0420    -1.9320     0.1030 nh         1 OOY      -0.786400
     15 O1          -1.5140     1.3650    -0.5890 o          1 OOY      -0.593100
     16 C1          -1.2900     0.1830    -0.3720 c          1 OOY       0.618700
     17 C2           1.1780     0.3110    -0.1320 ca         1 OOY      -0.031000
     18 O2           7.5930     3.1120     0.5180 os         1 OOY      -0.445000
     19 O3           2.4390    -4.7240     0.0200 os         1 OOY      -0.447000
     20 C15          2.7020    -2.6270     1.2000 c6         1 OOY       0.139300
     21 C16         -2.4050    -0.8170    -0.3340 ca         1 OOY      -0.118600
     22 C17         -2.2190    -2.1700    -0.6020 ca         1 OOY      -0.119000
     23 C18         -3.3030    -3.0350    -0.5580 ca         1 OOY      -0.092000
     24 C19         -4.5700    -2.5670    -0.2550 ca         1 OOY      -0.117000
     25 C20         -4.7540    -1.2120     0.0020 ca         1 OOY       0.127100
     26 O4          -6.0170    -0.8230     0.3240 os         1 OOY      -0.255200
     27 C21         -6.3730     0.4970     0.1930 ca         1 OOY       0.096100
     28 C22         -6.4480     1.0840    -1.0630 ca         1 OOY      -0.119500
     29 C23         -6.8660     2.4020    -1.1700 ca         1 OOY      -0.097000
     30 C24         -7.2090     3.1270    -0.0350 ca         1 OOY      -0.112000
     31 C25         -7.1310     2.5260     1.2140 ca         1 OOY      -0.097000
     32 C26         -6.7070     1.2080     1.3350 ca         1 OOY      -0.119500
     33 C27         -3.6790    -0.3360    -0.0430 ca         1 OOY      -0.126000
     34 H1           2.7960     3.2680    -0.2670 ha         1 OOY       0.117000
     35 H2           1.1370    -4.0680     1.4890 h1         1 OOY       0.050450
     36 H3           2.7370    -4.6130     2.0210 h1         1 OOY       0.050450
     37 H4           4.9560     3.9010     0.5290 h1         1 OOY       0.046700
     38 H5           4.7550     3.5460    -1.1920 h1         1 OOY       0.046700
     39 H6           7.0820     3.0190    -1.4820 h1         1 OOY       0.052950
     40 H7           6.9430     4.6000    -0.6940 h1         1 OOY       0.052950
     41 H8           8.0440     1.4680     1.6130 h1         1 OOY       0.052950
     42 H9           7.7450     1.1450    -0.1030 h1         1 OOY       0.052950
     43 H10          5.8880     0.3270     1.2040 h1         1 OOY       0.046700
     44 H11          5.6710     1.8740     2.0210 h1         1 OOY       0.046700
     45 H12          4.4040    -0.6910     0.1400 ha         1 OOY       0.118000
     46 H13          3.3150    -2.5880    -1.4670 h1         1 OOY       0.049200
     47 H14          1.6820    -2.1260    -1.9510 h1         1 OOY       0.049200
     48 H15          0.7070    -4.0910    -0.9140 h1         1 OOY       0.050450
     49 H16          2.0380    -4.6050    -1.9620 h1         1 OOY       0.050450
     50 H17          0.0280    -1.3060     0.1040 hn         1 OOY       0.181000
     51 H18          0.5720     2.3610    -0.3620 ha         1 OOY       0.149000
     52 H19          2.4530    -2.1340     2.1410 h1         1 OOY       0.049200
     53 H20          3.7970    -2.6220     1.1000 h1         1 OOY       0.049200
     54 H21         -1.2510    -2.5650    -0.8820 ha         1 OOY       0.116000
     55 H22         -3.1620    -4.0860    -0.7730 ha         1 OOY       0.119000
     56 H23         -5.4140    -3.2430    -0.2220 ha         1 OOY       0.132000
     57 H24         -6.1920     0.5170    -1.9500 ha         1 OOY       0.128000
     58 H25         -6.9300     2.8620    -2.1470 ha         1 OOY       0.117000
     59 H26         -7.5380     4.1530    -0.1250 ha         1 OOY       0.117000
     60 H27         -7.3960     3.0830     2.1040 ha         1 OOY       0.117000
     61 H28         -6.6400     0.7360     2.3070 ha         1 OOY       0.128000
     62 H29         -3.8140     0.7190     0.1590 ha         1 OOY       0.149000
     63 N1          -0.0650    -0.3250    -0.1360 ns         1 OOY      -0.133000
@<TRIPOS>BOND
     1     1     3 ar  
     2     1    13 ar  
     3     1    34 1   
     4     2    19 1   
     5     2    20 1   
     6     2    35 1   
     7     2    36 1   
     8     3     9 ar  
     9     3    12 1   
    10     4     6 1   
    11     4    12 1   
    12     4    37 1   
    13     4    38 1   
    14     5     9 ar  
    15     5    14 1   
    16     5    17 ar  
    17     6    18 1   
    18     6    39 1   
    19     6    40 1   
    20     7     8 1   
    21     7    18 1   
    22     7    41 1   
    23     7    42 1   
    24     8    12 1   
    25     8    43 1   
    26     8    44 1   
    27     9    45 1   
    28    10    11 1   
    29    10    14 1   
    30    10    46 1   
    31    10    47 1   
    32    11    19 1   
    33    11    48 1   
    34    11    49 1   
    35    13    17 ar  
    36    13    51 1   
    37    14    20 1   
    38    15    16 2   
    39    16    21 1   
    40    16    63 1   
    41    17    63 1   
    42    20    52 1   
    43    20    53 1   
    44    21    22 ar  
    45    21    33 ar  
    46    22    23 ar  
    47    22    54 1   
    48    23    24 ar  
    49    23    55 1   
    50    24    25 ar  
    51    24    56 1   
    52    25    26 1   
    53    25    33 ar  
    54    26    27 1   
    55    27    28 ar  
    56    27    32 ar  
    57    28    29 ar  
    58    28    57 1   
    59    29    30 ar  
    60    29    58 1   
    61    30    31 ar  
    62    30    59 1   
    63    31    32 ar  
    64    31    60 1   
    65    32    61 1   
    66    33    62 1   
    67    50    63 1   
@<TRIPOS>SUBSTRUCTURE
     1 OOY         1 TEMP              0 ****  ****    0 ROOT
