@<TRIPOS>MOLECULE
OOY
   63    67     1     0     0
SMALL
No Charge or Current Charge


@<TRIPOS>ATOM
      1 C4           2.8290     2.3010     0.1960 ca         1 OOY      -0.141000
      2 C14          1.5030    -4.0880     0.8830 c6         1 OOY       0.150600
      3 C5           3.9360     1.4410     0.0610 ca         1 OOY       0.268000
      4 C6           5.5530     3.3370    -0.4500 c6         1 OOY       0.156800
      5 C11          2.4050    -0.4660    -0.0180 ca         1 OOY       0.196000
      6 C7           7.0360     3.5080    -0.9000 c6         1 OOY       0.148600
      7 C8           7.7490     1.6540     0.4570 c6         1 OOY       0.148600
      8 C9           6.2980     1.4000     0.9670 c6         1 OOY       0.156800
      9 C10          3.7080     0.0590    -0.0480 ca         1 OOY      -0.144000
     10 C12          2.8230    -2.6240    -1.2540 c6         1 OOY       0.139300
     11 C13          2.1940    -4.0400    -1.4210 c6         1 OOY       0.150600
     12 N2           5.2600     1.9450     0.0290 nh         1 OOY      -0.782400
     13 C3           1.5200     1.7900     0.2280 ca         1 OOY      -0.104000
     14 N3           2.2040    -1.8640    -0.1210 nh         1 OOY      -0.786400
     15 O1          -1.4880     1.4880     0.6390 o          1 OOY      -0.593100
     16 C1          -1.2680     0.3150     0.3540 c          1 OOY       0.618700
     17 C2           1.2980     0.4010     0.1250 ca         1 OOY      -0.031000
     18 O2           7.9430     3.0500     0.1300 os         1 OOY      -0.445000
     19 O3           2.2290    -4.7650    -0.1700 os         1 OOY      -0.447000
     20 C15          2.0930    -2.6680     1.1380 c6         1 OOY       0.139300
     21 C16         -2.4000    -0.6940     0.2310 ca         1 OOY      -0.118600
     22 C17         -2.1730    -2.0440    -0.1440 ca         1 OOY      -0.119000
     23 C18         -3.2420    -2.9520    -0.2380 ca         1 OOY      -0.092000
     24 C19         -4.5530    -2.5300     0.0330 ca         1 OOY      -0.117000
     25 C20         -4.8000    -1.1970     0.3890 ca         1 OOY       0.127100
     26 O4          -6.0930    -0.8090     0.6600 os         1 OOY      -0.255200
     27 C21         -6.6010     0.4150     0.2860 ca         1 OOY       0.096100
     28 C22         -6.2590     1.0000    -0.9500 ca         1 OOY      -0.119500
     29 C23         -6.8020     2.2450    -1.3130 ca         1 OOY      -0.097000
     30 C24         -7.6930     2.9020    -0.4460 ca         1 OOY      -0.112000
     31 C25         -8.0450     2.3130     0.7810 ca         1 OOY      -0.097000
     32 C26         -7.5020     1.0670     1.1440 ca         1 OOY      -0.119500
     33 C27         -3.7300    -0.2870     0.4980 ca         1 OOY      -0.126000
     34 H1           2.9760     3.3730     0.2870 ha         1 OOY       0.117000
     35 H2           0.4440    -4.0090     0.5980 h1         1 OOY       0.050450
     36 H3           1.5620    -4.6870     1.8030 h1         1 OOY       0.050450
     37 H4           5.3420     4.0610     0.3500 h1         1 OOY       0.046700
     38 H5           4.9040     3.5900    -1.3020 h1         1 OOY       0.046700
     39 H6           7.2150     2.9320    -1.8200 h1         1 OOY       0.052950
     40 H7           7.2400     4.5660    -1.1170 h1         1 OOY       0.052950
     41 H8           8.4720     1.3610     1.2300 h1         1 OOY       0.052950
     42 H9           7.9410     1.0440    -0.4380 h1         1 OOY       0.052950
     43 H10          6.1700     0.3180     1.1100 h1         1 OOY       0.046700
     44 H11          6.1850     1.8690     1.9560 h1         1 OOY       0.046700
     45 H12          4.5500    -0.6140    -0.1620 ha         1 OOY       0.118000
     46 H13          3.9040    -2.7380    -1.0860 h1         1 OOY       0.049200
     47 H14          2.6930    -2.0700    -2.1960 h1         1 OOY       0.049200
     48 H15          1.1510    -3.9480    -1.7570 h1         1 OOY       0.050450
     49 H16          2.7480    -4.6070    -2.1820 h1         1 OOY       0.050450
     50 H17          0.0310    -1.1790    -0.0690 hn         1 OOY       0.181000
     51 H18          0.6960     2.4900     0.3270 ha         1 OOY       0.149000
     52 H19          1.4500    -2.1490     1.8650 h1         1 OOY       0.049200
     53 H20          3.0850    -2.7750     1.6000 h1         1 OOY       0.049200
     54 H21         -1.1740    -2.4090    -0.3690 ha         1 OOY       0.116000
     55 H22         -3.0530    -3.9850    -0.5220 ha         1 OOY       0.119000
     56 H23         -5.3780    -3.2340    -0.0390 ha         1 OOY       0.132000
     57 H24         -5.5790     0.4910    -1.6300 ha         1 OOY       0.128000
     58 H25         -6.5360     2.6980    -2.2650 ha         1 OOY       0.117000
     59 H26         -8.1140     3.8650    -0.7270 ha         1 OOY       0.117000
     60 H27         -8.7390     2.8190     1.4490 ha         1 OOY       0.117000
     61 H28         -7.7740     0.6100     2.0920 ha         1 OOY       0.128000
     62 H29         -3.9350     0.7380     0.7970 ha         1 OOY       0.149000
     63 N1           0.0040    -0.1890     0.1290 ns         1 OOY      -0.133000
@<TRIPOS>BOND
     1     1     3 ar  
     2     1    13 ar  
     3     1    34 1   
     4     2    19 1   
     5     2    20 1   
     6     2    35 1   
     7     2    36 1   
     8     3     9 ar  
     9     3    12 1   
    10     4     6 1   
    11     4    12 1   
    12     4    37 1   
    13     4    38 1   
    14     5     9 ar  
    15     5    14 1   
    16     5    17 ar  
    17     6    18 1   
    18     6    39 1   
    19     6    40 1   
    20     7     8 1   
    21     7    18 1   
    22     7    41 1   
    23     7    42 1   
    24     8    12 1   
    25     8    43 1   
    26     8    44 1   
    27     9    45 1   
    28    10    11 1   
    29    10    14 1   
    30    10    46 1   
    31    10    47 1   
    32    11    19 1   
    33    11    48 1   
    34    11    49 1   
    35    13    17 ar  
    36    13    51 1   
    37    14    20 1   
    38    15    16 2   
    39    16    21 1   
    40    16    63 1   
    41    17    63 1   
    42    20    52 1   
    43    20    53 1   
    44    21    22 ar  
    45    21    33 ar  
    46    22    23 ar  
    47    22    54 1   
    48    23    24 ar  
    49    23    55 1   
    50    24    25 ar  
    51    24    56 1   
    52    25    26 1   
    53    25    33 ar  
    54    26    27 1   
    55    27    28 ar  
    56    27    32 ar  
    57    28    29 ar  
    58    28    57 1   
    59    29    30 ar  
    60    29    58 1   
    61    30    31 ar  
    62    30    59 1   
    63    31    32 ar  
    64    31    60 1   
    65    32    61 1   
    66    33    62 1   
    67    50    63 1   
@<TRIPOS>SUBSTRUCTURE
     1 OOY         1 TEMP              0 ****  ****    0 ROOT
