@<TRIPOS>MOLECULE
OOZ
  122   125     1     0     0
SMALL
abcg2


@<TRIPOS>ATOM
      1 C1          -3.9860    -7.4550    25.0070 c6         1 OOZ       0.155300
      2 C2          -2.9630    -7.0110    26.0480 c6         1 OOZ       0.135300
      3 O3          -3.4650    -8.5780    24.3040 os         1 OOZ      -0.484000
      4 C41         -0.7120    -5.3290    21.0820 c3         1 OOZ      -0.051700
      5 C42         -0.1310    -3.9100    21.0850 c3         1 OOZ       0.184300
      6 C43          2.5800    -5.8610    22.2610 c2         1 OOZ      -0.198200
      7 C44          0.6080    -6.2170    23.7870 c3         1 OOZ      -0.057900
      8 C45         -1.5420    -5.6320    19.8350 c3         1 OOZ      -0.079100
      9 C47          3.6110    -5.5130    23.2850 c6         1 OOZ      -0.026500
     10 C48          4.8800    -6.3460    23.0840 c6         1 OOZ      -0.097400
     11 C49          3.9510    -4.0210    23.1970 c6         1 OOZ      -0.072400
     12 C50          5.9590    -5.9580    24.0890 c6         1 OOZ       0.130300
     13 C51          5.0510    -3.6370    24.1790 c6         1 OOZ      -0.075400
     14 C52          6.3000    -4.4770    23.9650 c6         1 OOZ       0.177300
     15 C12         -2.6330   -10.6680    23.9840 c          1 OOZ       0.494100
     16 C14         -5.6280    -5.8900    21.8050 c3         1 OOZ      -0.056700
     17 C16         -1.3670   -10.3200    23.2080 c          1 OOZ       0.534100
     18 C18         -6.0320    -4.4650    22.2670 c3         1 OOZ      -0.043200
     19 C19         -6.6860    -6.4920    20.8840 c3         1 OOZ      -0.089100
     20 C22         -5.0350    -3.4140    21.8580 c2         1 OOZ      -0.087400
     21 C23         -0.2530   -10.0330    21.1030 c6         1 OOZ       0.046700
     22 C24         -2.7010    -9.5890    21.2640 c6         1 OOZ       0.106000
     23 C25         -4.2420    -2.8400    22.7660 c2         1 OOZ      -0.236200
     24 C26         -5.0070    -3.1190    20.3880 c3         1 OOZ      -0.061900
     25 C27          0.3910    -8.6890    20.7850 c          1 OOZ       0.587100
     26 C28         -0.5090   -10.8440    19.8290 c6         1 OOZ      -0.081400
     27 C29         -2.9530   -10.4130    20.0140 c6         1 OOZ      -0.098400
     28 C30         -3.1440    -1.8350    22.5340 c3         1 OOZ      -0.121500
     29 C4          -4.3040    -6.3840    23.9660 c3         1 OOZ       0.184300
     30 C5          -2.6210    -8.1810    26.9640 c6         1 OOZ      -0.101400
     31 O6          -3.5060    -5.9220    26.7550 os         1 OOZ      -0.459000
     32 C7          -3.1560    -9.7100    25.0710 c6         1 OOZ       0.320000
     33 C8          -5.3580    -6.8500    22.9680 c3         1 OOZ      -0.072400
     34 O9          -3.1270    -6.0080    23.2840 oh         1 OOZ      -0.715000
     35 C10         -2.1160    -9.3720    26.1480 c6         1 OOZ      -0.057700
     36 O13         -4.2590   -10.2520    25.6960 oh         1 OOZ      -0.651000
     37 O17         -3.1510   -11.7330    23.7750 o          1 OOZ      -0.481100
     38 N20         -1.4540    -9.9730    21.9180 n          1 OOZ      -0.366800
     39 O21         -0.3240   -10.5220    23.8130 o          1 OOZ      -0.598100
     40 O31         -0.2000    -7.6580    21.3550 os         1 OOZ      -0.426100
     41 O32          1.3770    -8.6250    20.0940 o          1 OOZ      -0.496000
     42 C33         -1.7490   -10.3680    19.0850 c6         1 OOZ      -0.076400
     43 C34         -1.8530    -2.6410    22.5120 c          1 OOZ       0.588100
     44 C35         -3.1260    -0.7530    23.6150 c3         1 OOZ      -0.063400
     45 C36          0.4210    -6.3520    21.2390 c3         1 OOZ       0.213500
     46 C37         -1.2090    -2.8300    21.1660 c3         1 OOZ      -0.217400
     47 O38         -1.3850    -3.0950    23.5360 o          1 OOZ      -0.541100
     48 C39         -2.0530     0.3020    23.3830 c3         1 OOZ      -0.094100
     49 C40          1.2890    -6.1420    22.4520 c2         1 OOZ      -0.131400
     50 O46          0.6430    -3.7610    19.9120 oh         1 OOZ      -0.657000
     51 O53          7.1580    -6.6810    23.8990 os         1 OOZ      -0.469000
     52 O54          7.2700    -4.0810    24.9080 oh         1 OOZ      -0.723000
     53 H1          -4.9210    -7.7260    25.5180 h1         1 OOZ       0.060700
     54 H2          -2.0470    -6.7050    25.5200 h1         1 OOZ       0.054700
     55 H3          -1.3660    -5.4120    21.9490 hc         1 OOZ       0.083700
     56 H4           0.5090    -3.8070    21.9700 h1         1 OOZ       0.053700
     57 H5           2.9400    -5.8280    21.2340 ha         1 OOZ       0.177000
     58 H6           1.3110    -6.1930    24.6160 hc         1 OOZ       0.047033
     59 H7          -0.0810    -5.3800    23.9210 hc         1 OOZ       0.047033
     60 H8           0.0160    -7.1290    23.8830 hc         1 OOZ       0.047033
     61 H9          -2.0440    -6.5950    19.9190 hc         1 OOZ       0.037367
     62 H10         -2.3260    -4.8900    19.6840 hc         1 OOZ       0.037367
     63 H11         -0.9290    -5.6560    18.9330 hc         1 OOZ       0.037367
     64 H12          3.2290    -5.7120    24.2920 hc         1 OOZ       0.055700
     65 H13          4.6420    -7.4090    23.1730 hc         1 OOZ       0.054700
     66 H14          5.2600    -6.1890    22.0680 hc         1 OOZ       0.054700
     67 H15          4.2710    -3.7880    22.1760 hc         1 OOZ       0.043200
     68 H16          3.0540    -3.4270    23.3880 hc         1 OOZ       0.043200
     69 H17          5.5770    -6.1370    25.1090 h1         1 OOZ       0.043700
     70 H18          5.2980    -2.5780    24.0720 hc         1 OOZ       0.053700
     71 H19          4.6950    -3.7790    25.2050 hc         1 OOZ       0.053700
     72 H20          6.6630    -4.3020    22.9380 h1         1 OOZ       0.039700
     73 H21          8.1410    -8.4050    24.2930 h1         1 OOZ       0.030367
     74 H22          6.8940    -7.9990    25.4850 h1         1 OOZ       0.030367
     75 H23          6.4340    -8.6420    23.8990 h1         1 OOZ       0.030367
     76 H27         -4.7000    -5.8170    21.2300 hc         1 OOZ       0.063700
     77 H31         -7.0040    -4.2130    21.8310 hc         1 OOZ       0.047700
     78 H32         -6.1760    -4.4380    23.3500 hc         1 OOZ       0.047700
     79 H33         -6.3860    -7.4780    20.5230 hc         1 OOZ       0.033033
     80 H34         -7.6400    -6.6040    21.4040 hc         1 OOZ       0.033033
     81 H35         -6.8570    -5.8580    20.0130 hc         1 OOZ       0.033033
     82 H36          0.5070   -10.5600    21.6850 h1         1 OOZ       0.108700
     83 H37         -2.6480    -8.5270    21.0100 h1         1 OOZ       0.062700
     84 H38         -3.5290    -9.6910    21.9600 h1         1 OOZ       0.062700
     85 H39         -4.3550    -3.1440    23.8040 ha         1 OOZ       0.175000
     86 H40         -4.3330    -2.3110    20.1150 hc         1 OOZ       0.042367
     87 H41         -4.7020    -4.0020    19.8200 hc         1 OOZ       0.042367
     88 H42         -6.0080    -2.8570    20.0360 hc         1 OOZ       0.042367
     89 H43         -0.6400   -11.8890    20.1220 hc         1 OOZ       0.065200
     90 H44          0.3780   -10.8040    19.1980 hc         1 OOZ       0.065200
     91 H45         -3.8450   -10.0260    19.5190 hc         1 OOZ       0.052200
     92 H46         -3.1640   -11.4480    20.2980 hc         1 OOZ       0.052200
     93 H47         -3.2680    -1.3510    21.5610 hc         1 OOZ       0.063700
     94 H48         -4.7110    -5.5310    24.5190 h1         1 OOZ       0.048700
     95 H49         -1.8420    -7.8920    27.6740 hc         1 OOZ       0.060200
     96 H50         -3.5010    -8.4590    27.5510 hc         1 OOZ       0.060200
     97 H51         -6.2870    -7.0240    23.5220 hc         1 OOZ       0.048200
     98 H52         -5.0720    -7.8170    22.5440 hc         1 OOZ       0.048200
     99 H53         -2.7710    -5.2180    23.6990 ho         1 OOZ       0.508000
    100 H54         -1.2120    -9.0460    25.6280 hc         1 OOZ       0.077700
    101 H55         -4.9010   -10.5560    25.0410 ho         1 OOZ       0.463000
    102 H56         -1.9190   -10.9980    18.2100 hc         1 OOZ       0.048700
    103 H57         -1.6030    -9.3490    18.7120 hc         1 OOZ       0.048700
    104 H58         -4.1090    -0.2770    23.6310 hc         1 OOZ       0.052200
    105 H59         -2.9930    -1.2170    24.5950 hc         1 OOZ       0.052200
    106 H60          1.0360    -6.3320    20.3380 h1         1 OOZ       0.082700
    107 H61         -0.7620    -1.8520    20.9340 hc         1 OOZ       0.070700
    108 H62         -1.9820    -2.9630    20.4070 hc         1 OOZ       0.070700
    109 H63         -2.1040     1.0840    24.1410 hc         1 OOZ       0.035033
    110 H64         -1.0470    -0.1210    23.4200 hc         1 OOZ       0.035033
    111 H65         -2.1740     0.7790    22.4080 hc         1 OOZ       0.035033
    112 H66          1.1810    -2.9690    20.0000 ho         1 OOZ       0.440000
    113 H67          8.0230    -4.6740    24.8160 ho         1 OOZ       0.518000
    114 C11         -2.5430    -5.0140    27.2310 c3         1 OOZ       0.142900
    115 C15         -1.7580   -10.5620    27.0260 c3         1 OOZ      -0.081100
    116 C55          7.1420    -7.9870    24.4180 c3         1 OOZ       0.148900
    117 H24         -3.0660    -4.2330    27.7820 h1         1 OOZ       0.033367
    118 H25         -1.8200    -5.4820    27.9080 h1         1 OOZ       0.033367
    119 H26         -1.9860    -4.5450    26.4110 h1         1 OOZ       0.033367
    120 H28         -0.9580   -10.2860    27.7130 hc         1 OOZ       0.044367
    121 H29         -2.6070   -10.8960    27.6220 hc         1 OOZ       0.044367
    122 H30         -1.4000   -11.4100    26.4400 hc         1 OOZ       0.044367
@<TRIPOS>BOND
     1     1     2 1   
     2     1     3 1   
     3     1    29 1   
     4     1    53 1   
     5     2    30 1   
     6     2    31 1   
     7     2    54 1   
     8     3    32 1   
     9     4     5 1   
    10     4     8 1   
    11     4    45 1   
    12     4    55 1   
    13     5    46 1   
    14     5    50 1   
    15     5    56 1   
    16     6     9 1   
    17     6    49 2   
    18     6    57 1   
    19     7    49 1   
    20     7    58 1   
    21     7    59 1   
    22     7    60 1   
    23     8    61 1   
    24     8    62 1   
    25     8    63 1   
    26     9    10 1   
    27     9    11 1   
    28     9    64 1   
    29    10    12 1   
    30    10    65 1   
    31    10    66 1   
    32    11    13 1   
    33    11    67 1   
    34    11    68 1   
    35    12    14 1   
    36    12    51 1   
    37    12    69 1   
    38    13    14 1   
    39    13    70 1   
    40    13    71 1   
    41    14    52 1   
    42    14    72 1   
    43    15    17 1   
    44    15    32 1   
    45    15    37 2   
    46    16    18 1   
    47    16    19 1   
    48    16    33 1   
    49    16    76 1   
    50    17    38 1   
    51    17    39 2   
    52    18    20 1   
    53    18    77 1   
    54    18    78 1   
    55    19    79 1   
    56    19    80 1   
    57    19    81 1   
    58    20    23 2   
    59    20    24 1   
    60    21    25 1   
    61    21    26 1   
    62    21    38 1   
    63    21    82 1   
    64    22    27 1   
    65    22    38 1   
    66    22    83 1   
    67    22    84 1   
    68    23    28 1   
    69    23    85 1   
    70    24    86 1   
    71    24    87 1   
    72    24    88 1   
    73    25    40 1   
    74    25    41 2   
    75    26    42 1   
    76    26    89 1   
    77    26    90 1   
    78    27    42 1   
    79    27    91 1   
    80    27    92 1   
    81    28    43 1   
    82    28    44 1   
    83    28    93 1   
    84    29    33 1   
    85    29    34 1   
    86    29    94 1   
    87    30    35 1   
    88    30    95 1   
    89    30    96 1   
    90    31   114 1   
    91    32    35 1   
    92    32    36 1   
    93    33    97 1   
    94    33    98 1   
    95    34    99 1   
    96    35   100 1   
    97    35   115 1   
    98    36   101 1   
    99    40    45 1   
   100    42   102 1   
   101    42   103 1   
   102    43    46 1   
   103    43    47 2   
   104    44    48 1   
   105    44   104 1   
   106    44   105 1   
   107    45    49 1   
   108    45   106 1   
   109    46   107 1   
   110    46   108 1   
   111    48   109 1   
   112    48   110 1   
   113    48   111 1   
   114    50   112 1   
   115    51   116 1   
   116    52   113 1   
   117    73   116 1   
   118    74   116 1   
   119    75   116 1   
   120   114   117 1   
   121   114   118 1   
   122   114   119 1   
   123   115   120 1   
   124   115   121 1   
   125   115   122 1   
@<TRIPOS>SUBSTRUCTURE
     1 OOZ         1 TEMP              0 ****  ****    0 ROOT
