@<TRIPOS>MOLECULE
OOZ
  122   125     1     0     0
SMALL
No Charge or Current Charge


@<TRIPOS>ATOM
      1 C1          -3.6890    -7.1730    24.9340 c6         1 OOZ       0.155300
      2 C2          -2.4370    -6.5440    25.6130 c6         1 OOZ       0.135300
      3 O3          -3.3560    -8.4530    24.3250 os         1 OOZ      -0.484000
      4 C41         -0.3910    -5.5520    20.3940 c3         1 OOZ      -0.051700
      5 C42          0.1500    -4.1370    20.8080 c3         1 OOZ       0.184300
      6 C43          2.5250    -6.0470    22.1760 c2         1 OOZ      -0.198200
      7 C44          0.4340    -7.0260    23.2260 c3         1 OOZ      -0.057900
      8 C45         -0.9260    -5.5870    18.9350 c3         1 OOZ      -0.079100
      9 C47          3.2660    -5.8150    23.4890 c6         1 OOZ      -0.026500
     10 C48          4.8010    -5.9640    23.2970 c6         1 OOZ      -0.097400
     11 C49          2.9120    -4.4170    24.0680 c6         1 OOZ      -0.072400
     12 C50          5.5570    -5.6930    24.6280 c6         1 OOZ       0.130300
     13 C51          3.6780    -4.1330    25.3850 c6         1 OOZ      -0.075400
     14 C52          5.2030    -4.2740    25.1670 c6         1 OOZ       0.177300
     15 C12         -2.5660   -10.7460    24.2490 c          1 OOZ       0.494100
     16 C14         -6.2640    -5.9200    22.0800 c3         1 OOZ      -0.056700
     17 C16         -1.3540   -10.6840    23.2120 c          1 OOZ       0.534100
     18 C18         -6.3100    -4.3640    22.2340 c3         1 OOZ      -0.043200
     19 C19         -7.6710    -6.4780    21.7560 c3         1 OOZ      -0.089100
     20 C22         -5.0270    -3.6270    21.8460 c2         1 OOZ      -0.087400
     21 C23         -0.5410   -10.3760    20.7980 c6         1 OOZ       0.046700
     22 C24         -2.8980    -9.6370    21.4890 c6         1 OOZ       0.106000
     23 C25         -4.2860    -2.9530    22.7460 c2         1 OOZ      -0.236200
     24 C26         -4.6980    -3.7250    20.3600 c3         1 OOZ      -0.061900
     25 C27          0.4400    -9.1680    20.8500 c          1 OOZ       0.587100
     26 C28         -1.1100   -10.5930    19.3610 c6         1 OOZ      -0.081400
     27 C29         -3.4220    -9.9480    20.0740 c6         1 OOZ      -0.098400
     28 C30         -2.9560    -2.2370    22.5010 c3         1 OOZ      -0.121500
     29 C4          -4.2570    -6.2500    23.7940 c3         1 OOZ       0.184300
     30 C5          -1.7650    -7.5710    26.5630 c6         1 OOZ      -0.101400
     31 O6          -2.8060    -5.3360    26.3180 os         1 OOZ      -0.459000
     32 C7          -2.8040    -9.4810    25.1680 c6         1 OOZ       0.320000
     33 C8          -5.6650    -6.6810    23.3050 c3         1 OOZ      -0.072400
     34 O9          -3.3650    -6.1880    22.6690 oh         1 OOZ      -0.715000
     35 C10         -1.5020    -8.9300    25.8460 c6         1 OOZ      -0.057700
     36 O13         -3.8030    -9.7700    26.1610 oh         1 OOZ      -0.651000
     37 O17         -3.3820   -11.6710    24.1980 o          1 OOZ      -0.481100
     38 N20         -1.6300   -10.3470    21.8550 n          1 OOZ      -0.366800
     39 O21         -0.2160   -10.9960    23.5550 o          1 OOZ      -0.598100
     40 O31         -0.1510    -7.9490    20.6050 os         1 OOZ      -0.426100
     41 O32          1.6120    -9.3090    21.1770 o          1 OOZ      -0.496000
     42 C33         -2.3320    -9.7230    19.0210 c6         1 OOZ      -0.076400
     43 C34         -1.8140    -3.2510    22.2590 c          1 OOZ       0.588100
     44 C35         -2.6150    -1.2860    23.6810 c3         1 OOZ      -0.063400
     45 C36          0.6140    -6.7170    20.6780 c3         1 OOZ       0.213500
     46 C37         -0.9460    -3.0640    21.0020 c3         1 OOZ      -0.217400
     47 O38         -1.6120    -4.1640    23.0530 o          1 OOZ      -0.541100
     48 C39         -1.3250    -0.4620    23.4830 c3         1 OOZ      -0.094100
     49 C40          1.2910    -6.5780    22.0510 c2         1 OOZ      -0.131400
     50 O46          1.0850    -3.6640    19.8330 oh         1 OOZ      -0.657000
     51 O53          6.9950    -5.8130    24.4920 os         1 OOZ      -0.469000
     52 O54          5.9230    -4.0140    26.3790 oh         1 OOZ      -0.723000
     53 H1          -4.4730    -7.3200    25.6910 h1         1 OOZ       0.060700
     54 H2          -1.7210    -6.2710    24.8290 h1         1 OOZ       0.054700
     55 H3          -1.2570    -5.7530    21.0300 hc         1 OOZ       0.083700
     56 H4           0.6590    -4.2110    21.7780 h1         1 OOZ       0.053700
     57 H5           3.0600    -5.7270    21.2800 ha         1 OOZ       0.177000
     58 H6           0.5920    -8.0900    23.4240 hc         1 OOZ       0.047033
     59 H7           0.6620    -6.4820    24.1490 hc         1 OOZ       0.047033
     60 H8          -0.6320    -6.8810    23.0260 hc         1 OOZ       0.047033
     61 H9          -1.4160    -6.5410    18.7190 hc         1 OOZ       0.037367
     62 H10         -1.6660    -4.7980    18.7620 hc         1 OOZ       0.037367
     63 H11         -0.1120    -5.4590    18.2110 hc         1 OOZ       0.037367
     64 H12          2.9530    -6.5780    24.2150 hc         1 OOZ       0.055700
     65 H13          5.0140    -6.9780    22.9350 hc         1 OOZ       0.054700
     66 H14          5.1560    -5.2680    22.5230 hc         1 OOZ       0.054700
     67 H15          3.1510    -3.6390    23.3290 hc         1 OOZ       0.043200
     68 H16          1.8310    -4.3460    24.2490 hc         1 OOZ       0.043200
     69 H17          5.2250    -6.4350    25.3710 h1         1 OOZ       0.043700
     70 H18          3.4420    -3.1210    25.7390 hc         1 OOZ       0.053700
     71 H19          3.3430    -4.8270    26.1680 hc         1 OOZ       0.053700
     72 H20          5.5050    -3.5410    24.4030 h1         1 OOZ       0.039700
     73 H21          8.6230    -7.0890    24.1910 h1         1 OOZ       0.030367
     74 H22          7.1760    -7.8710    24.8620 h1         1 OOZ       0.030367
     75 H23          7.2300    -7.4070    23.1410 h1         1 OOZ       0.030367
     76 H27         -5.6450    -6.1650    21.2110 hc         1 OOZ       0.063700
     77 H31         -7.1260    -3.9660    21.6170 hc         1 OOZ       0.047700
     78 H32         -6.5950    -4.1250    23.2660 hc         1 OOZ       0.047700
     79 H33         -7.6350    -7.5640    21.6100 hc         1 OOZ       0.033033
     80 H34         -8.3740    -6.2640    22.5710 hc         1 OOZ       0.033033
     81 H35         -8.0650    -6.0300    20.8360 hc         1 OOZ       0.033033
     82 H36          0.1040   -11.2410    21.0090 h1         1 OOZ       0.108700
     83 H37         -2.7200    -8.5560    21.5700 h1         1 OOZ       0.062700
     84 H38         -3.7040    -9.8810    22.1930 h1         1 OOZ       0.062700
     85 H39         -4.6120    -2.9310    23.7870 ha         1 OOZ       0.175000
     86 H40         -3.9550    -2.9880    20.0450 hc         1 OOZ       0.042367
     87 H41         -4.3010    -4.7130    20.1000 hc         1 OOZ       0.042367
     88 H42         -5.5890    -3.5500    19.7460 hc         1 OOZ       0.042367
     89 H43         -1.3970   -11.6490    19.2590 hc         1 OOZ       0.065200
     90 H44         -0.3170   -10.4310    18.6170 hc         1 OOZ       0.065200
     91 H45         -4.2930    -9.3150    19.8560 hc         1 OOZ       0.052200
     92 H46         -3.7710   -10.9890    20.0330 hc         1 OOZ       0.052200
     93 H47         -3.0350    -1.6020    21.6110 hc         1 OOZ       0.063700
     94 H48         -4.3670    -5.2470    24.2250 h1         1 OOZ       0.048700
     95 H49         -0.8140    -7.1710    26.9380 hc         1 OOZ       0.060200
     96 H50         -2.4070    -7.7290    27.4410 hc         1 OOZ       0.060200
     97 H51         -6.3580    -6.5920    24.1510 hc         1 OOZ       0.048200
     98 H52         -5.6280    -7.7490    23.0550 hc         1 OOZ       0.048200
     99 H53         -2.7070    -5.4770    22.8820 ho         1 OOZ       0.508000
    100 H54         -0.7570    -8.7530    25.0660 hc         1 OOZ       0.077700
    101 H55         -4.5610   -10.1470    25.6650 ho         1 OOZ       0.463000
    102 H56         -2.7140    -9.9840    18.0240 hc         1 OOZ       0.048700
    103 H57         -2.0570    -8.6640    18.9830 hc         1 OOZ       0.048700
    104 H58         -3.4520    -0.5900    23.8280 hc         1 OOZ       0.052200
    105 H59         -2.5250    -1.8680    24.6070 hc         1 OOZ       0.052200
    106 H60          1.3880    -6.7090    19.8980 h1         1 OOZ       0.082700
    107 H61         -0.5200    -2.0570    21.0660 hc         1 OOZ       0.070700
    108 H62         -1.5970    -2.9480    20.1300 hc         1 OOZ       0.070700
    109 H63         -1.1920     0.2380    24.3170 hc         1 OOZ       0.035033
    110 H64         -0.4430    -1.1120    23.4460 hc         1 OOZ       0.035033
    111 H65         -1.3720     0.1190    22.5540 hc         1 OOZ       0.035033
    112 H66          1.4710    -2.8320    20.1790 ho         1 OOZ       0.440000
    113 H67          6.8060    -4.4310    26.2320 ho         1 OOZ       0.518000
    114 C11         -1.7370    -4.4850    26.7730 c3         1 OOZ       0.142900
    115 C15         -0.8490    -9.9500    26.8260 c3         1 OOZ      -0.081100
    116 C55          7.5270    -7.1080    24.1550 c3         1 OOZ       0.148900
    117 H24         -2.1450    -3.5660    27.2120 h1         1 OOZ       0.033367
    118 H25         -1.1310    -4.9840    27.5400 h1         1 OOZ       0.033367
    119 H26         -1.0820    -4.2020    25.9390 h1         1 OOZ       0.033367
    120 H28          0.0930    -9.5580    27.2300 hc         1 OOZ       0.044367
    121 H29         -1.5060   -10.1680    27.6760 hc         1 OOZ       0.044367
    122 H30         -0.6190   -10.9010    26.3320 hc         1 OOZ       0.044367
@<TRIPOS>BOND
     1     1     2 1   
     2     1     3 1   
     3     1    29 1   
     4     1    53 1   
     5     2    30 1   
     6     2    31 1   
     7     2    54 1   
     8     3    32 1   
     9     4     5 1   
    10     4     8 1   
    11     4    45 1   
    12     4    55 1   
    13     5    46 1   
    14     5    50 1   
    15     5    56 1   
    16     6     9 1   
    17     6    49 2   
    18     6    57 1   
    19     7    49 1   
    20     7    58 1   
    21     7    59 1   
    22     7    60 1   
    23     8    61 1   
    24     8    62 1   
    25     8    63 1   
    26     9    10 1   
    27     9    11 1   
    28     9    64 1   
    29    10    12 1   
    30    10    65 1   
    31    10    66 1   
    32    11    13 1   
    33    11    67 1   
    34    11    68 1   
    35    12    14 1   
    36    12    51 1   
    37    12    69 1   
    38    13    14 1   
    39    13    70 1   
    40    13    71 1   
    41    14    52 1   
    42    14    72 1   
    43    15    17 1   
    44    15    32 1   
    45    15    37 2   
    46    16    18 1   
    47    16    19 1   
    48    16    33 1   
    49    16    76 1   
    50    17    38 1   
    51    17    39 2   
    52    18    20 1   
    53    18    77 1   
    54    18    78 1   
    55    19    79 1   
    56    19    80 1   
    57    19    81 1   
    58    20    23 2   
    59    20    24 1   
    60    21    25 1   
    61    21    26 1   
    62    21    38 1   
    63    21    82 1   
    64    22    27 1   
    65    22    38 1   
    66    22    83 1   
    67    22    84 1   
    68    23    28 1   
    69    23    85 1   
    70    24    86 1   
    71    24    87 1   
    72    24    88 1   
    73    25    40 1   
    74    25    41 2   
    75    26    42 1   
    76    26    89 1   
    77    26    90 1   
    78    27    42 1   
    79    27    91 1   
    80    27    92 1   
    81    28    43 1   
    82    28    44 1   
    83    28    93 1   
    84    29    33 1   
    85    29    34 1   
    86    29    94 1   
    87    30    35 1   
    88    30    95 1   
    89    30    96 1   
    90    31   114 1   
    91    32    35 1   
    92    32    36 1   
    93    33    97 1   
    94    33    98 1   
    95    34    99 1   
    96    35   100 1   
    97    35   115 1   
    98    36   101 1   
    99    40    45 1   
   100    42   102 1   
   101    42   103 1   
   102    43    46 1   
   103    43    47 2   
   104    44    48 1   
   105    44   104 1   
   106    44   105 1   
   107    45    49 1   
   108    45   106 1   
   109    46   107 1   
   110    46   108 1   
   111    48   109 1   
   112    48   110 1   
   113    48   111 1   
   114    50   112 1   
   115    51   116 1   
   116    52   113 1   
   117    73   116 1   
   118    74   116 1   
   119    75   116 1   
   120   114   117 1   
   121   114   118 1   
   122   114   119 1   
   123   115   120 1   
   124   115   121 1   
   125   115   122 1   
@<TRIPOS>SUBSTRUCTURE
     1 OOZ         1 TEMP              0 ****  ****    0 ROOT
