@<TRIPOS>MOLECULE
OP0
   38    38     1     0     0
SMALL
abcg2


@<TRIPOS>ATOM
      1 C1         -12.8690     0.4880    16.7120 c          1 OP0       0.626900
      2 O8         -12.0640     0.0200    15.9090 o          1 OP0      -0.646100
      3 N14        -14.1080     0.9190    16.4110 n          1 OP0      -0.389800
      4 C2         -14.5920     0.8500    15.0430 c6         1 OP0       0.031700
      5 C3         -14.4730     2.2270    14.3620 c          1 OP0       0.589100
      6 N15        -14.7710     2.1910    13.0470 ns         1 OP0      -0.399400
      7 O9         -14.1570     3.2490    14.9560 o          1 OP0      -0.585100
      8 C7         -14.9510     1.5460    17.4260 c6         1 OP0       0.120000
      9 C6         -16.3760     1.0040    17.4130 c6         1 OP0       0.127500
     10 C5         -16.9400     1.0190    15.9900 c6         1 OP0      -0.079400
     11 C4         -16.0230     0.2870    15.0130 c6         1 OP0      -0.074400
     12 N16        -16.4240    -0.3710    17.9180 n7         1 OP0      -0.539900
     13 S17        -15.1900    -1.4330    19.9160 s6         1 OP0       1.527300
     14 O10        -16.2650    -0.3060    19.3540 os         1 OP0      -0.434000
     15 O13        -15.2870    -1.1600    21.3420 o          1 OP0      -0.713867
     16 O12        -13.8990    -1.1100    19.3240 o          1 OP0      -0.713867
     17 O11        -15.7150    -2.7290    19.5050 o          1 OP0      -0.713867
     18 N21        -16.0210     5.4550    13.7060 n8         1 OP0      -1.007200
     19 C22        -16.7150     4.3890    12.9780 c3         1 OP0       0.130800
     20 C23        -15.8700     3.8650    11.8380 c3         1 OP0       0.135600
     21 O24        -14.5960     3.3200    12.2700 os         1 OP0      -0.232100
     22 H1         -12.6380     0.5840    17.7790 h5         1 OP0       0.065200
     23 H2         -13.9300     0.1710    14.5070 h1         1 OP0       0.094700
     24 H3         -14.8400     1.3300    12.5210 hn         1 OP0       0.328500
     25 H4         -14.4900     1.3730    18.3960 h1         1 OP0       0.068200
     26 H5         -14.9900     2.6210    17.2460 h1         1 OP0       0.068200
     27 H6         -16.9830     1.6610    18.0470 h1         1 OP0       0.050700
     28 H7         -17.0580     2.0620    15.6870 hc         1 OP0       0.037200
     29 H8         -17.9360     0.5720    15.9780 hc         1 OP0       0.037200
     30 H9         -16.4200     0.3500    14.0010 hc         1 OP0       0.054200
     31 H10        -15.9660    -0.7700    15.2740 hc         1 OP0       0.054200
     32 H11        -17.3730    -0.7200    17.8100 hn         1 OP0       0.396000
     33 H12        -16.6420     5.8470    14.4050 hn         1 OP0       0.410500
     34 H13        -15.2440     5.0410    14.2150 hn         1 OP0       0.410500
     35 H15        -17.6290     4.7930    12.5360 h1         1 OP0       0.028700
     36 H16        -17.0170     3.5510    13.6200 h1         1 OP0       0.028700
     37 H17        -16.4090     3.0990    11.2740 h1         1 OP0       0.052700
     38 H18        -15.5750     4.6720    11.1680 h1         1 OP0       0.052700
@<TRIPOS>BOND
     1     1     2 2   
     2     1     3 1   
     3     1    22 1   
     4     3     4 1   
     5     3     8 1   
     6     4     5 1   
     7     4    11 1   
     8     4    23 1   
     9     5     6 1   
    10     5     7 2   
    11     6    21 1   
    12     6    24 1   
    13     8     9 1   
    14     8    25 1   
    15     8    26 1   
    16     9    10 1   
    17     9    12 1   
    18     9    27 1   
    19    10    11 1   
    20    10    28 1   
    21    10    29 1   
    22    11    30 1   
    23    11    31 1   
    24    12    14 1   
    25    12    32 1   
    26    13    14 1   
    27    13    15 1   
    28    13    16 1   
    29    13    17 1   
    30    18    19 1   
    31    18    33 1   
    32    18    34 1   
    33    19    20 1   
    34    19    35 1   
    35    19    36 1   
    36    20    21 1   
    37    20    37 1   
    38    20    38 1   
@<TRIPOS>SUBSTRUCTURE
     1 OP0         1 TEMP              0 ****  ****    0 ROOT
