@<TRIPOS>MOLECULE
OP0
   38    38     1     0     0
SMALL
No Charge or Current Charge


@<TRIPOS>ATOM
      1 C1         -12.8550     1.0050    16.9420 c          1 OP0       0.626900
      2 O8         -11.8770     0.6600    16.2820 o          1 OP0      -0.646100
      3 N14        -14.1600     1.0160    16.4170 n          1 OP0      -0.389800
      4 C2         -14.4550     0.7410    14.9730 c6         1 OP0       0.031700
      5 C3         -14.4380     2.0260    14.0810 c          1 OP0       0.589100
      6 N15        -15.3040     2.0560    12.9940 ns         1 OP0      -0.399400
      7 O9         -13.6750     2.9590    14.3130 o          1 OP0      -0.585100
      8 C7         -15.3010     1.5590    17.2080 c6         1 OP0       0.120000
      9 C6         -16.6010     0.7080    17.0800 c6         1 OP0       0.127500
     10 C5         -16.9330     0.4600    15.5840 c6         1 OP0      -0.079400
     11 C4         -15.7240    -0.1560    14.8340 c6         1 OP0      -0.074400
     12 N16        -16.5040    -0.5790    17.8140 n7         1 OP0      -0.539900
     13 S17        -15.1960    -1.1280    20.1570 s6         1 OP0       1.527300
     14 O10        -16.4100    -0.3470    19.2980 os         1 OP0      -0.434000
     15 O13        -15.4900    -0.8040    21.5630 o          1 OP0      -0.713867
     16 O12        -13.9470    -0.5310    19.6530 o          1 OP0      -0.713867
     17 O11        -15.3600    -2.5530    19.8190 o          1 OP0      -0.713867
     18 N21        -15.1520     5.5170    13.7610 n8         1 OP0      -1.007200
     19 C22        -16.4080     4.8070    13.4200 c3         1 OP0       0.130800
     20 C23        -16.3350     4.0250    12.0750 c3         1 OP0       0.135600
     21 O24        -15.1860     3.1460    12.0560 os         1 OP0      -0.232100
     22 H1         -12.8050     1.3380    17.9970 h5         1 OP0       0.065200
     23 H2         -13.6280     0.1460    14.5610 h1         1 OP0       0.094700
     24 H3         -15.8470     1.2510    12.6960 hn         1 OP0       0.328500
     25 H4         -15.0220     1.6480    18.2670 h1         1 OP0       0.068200
     26 H5         -15.5130     2.5770    16.8530 h1         1 OP0       0.068200
     27 H6         -17.4300     1.2800    17.5200 h1         1 OP0       0.050700
     28 H7         -17.2160     1.4110    15.1120 hc         1 OP0       0.037200
     29 H8         -17.8080    -0.1980    15.4930 hc         1 OP0       0.037200
     30 H9         -15.9730    -0.3490    13.7830 hc         1 OP0       0.054200
     31 H10        -15.5030    -1.1440    15.2610 hc         1 OP0       0.054200
     32 H11        -17.3520    -1.1440    17.6750 hn         1 OP0       0.396000
     33 H12        -15.2310     5.9020    14.7100 hn         1 OP0       0.410500
     34 H13        -14.4210     4.7940    13.8610 hn         1 OP0       0.410500
     35 H15        -17.2220     5.5420    13.3650 h1         1 OP0       0.028700
     36 H16        -16.6430     4.1070    14.2340 h1         1 OP0       0.028700
     37 H17        -17.2630     3.4580    11.9290 h1         1 OP0       0.052700
     38 H18        -16.2570     4.7490    11.2540 h1         1 OP0       0.052700
@<TRIPOS>BOND
     1     1     2 2   
     2     1     3 1   
     3     1    22 1   
     4     3     4 1   
     5     3     8 1   
     6     4     5 1   
     7     4    11 1   
     8     4    23 1   
     9     5     6 1   
    10     5     7 2   
    11     6    21 1   
    12     6    24 1   
    13     8     9 1   
    14     8    25 1   
    15     8    26 1   
    16     9    10 1   
    17     9    12 1   
    18     9    27 1   
    19    10    11 1   
    20    10    28 1   
    21    10    29 1   
    22    11    30 1   
    23    11    31 1   
    24    12    14 1   
    25    12    32 1   
    26    13    14 1   
    27    13    15 1   
    28    13    16 1   
    29    13    17 1   
    30    18    19 1   
    31    18    33 1   
    32    18    34 1   
    33    19    20 1   
    34    19    35 1   
    35    19    36 1   
    36    20    21 1   
    37    20    37 1   
    38    20    38 1   
@<TRIPOS>SUBSTRUCTURE
     1 OP0         1 TEMP              0 ****  ****    0 ROOT
