@<TRIPOS>MOLECULE
OP2
   43    42     1     0     0
SMALL
bcc


@<TRIPOS>ATOM
      1 O6           7.7020     1.5930    -0.5170 o          1 OP2      -0.830300
      2 C12          6.8480     0.8080    -0.0560 c          1 OP2       0.936600
      3 C11          5.8460     0.2850    -1.0950 c3         1 OP2      -0.011600
      4 O5           4.8950    -0.5710    -0.5200 os         1 OP2      -0.364600
      5 C10          3.9670    -1.0560    -1.4520 c3         1 OP2       0.137400
      6 C9           2.9570    -1.9310    -0.7530 c3         1 OP2       0.140400
      7 O4           2.1780    -1.1530     0.1190 os         1 OP2      -0.374600
      8 C8           1.2450    -1.9130     0.8430 c3         1 OP2       0.142400
      9 C7           0.4390    -1.0100     1.7420 c3         1 OP2       0.137400
     10 O3          -0.3460    -0.1440     0.9640 os         1 OP2      -0.386600
     11 C6          -1.1260     0.7270     1.7430 c3         1 OP2       0.140400
     12 C5          -1.9280     1.6350     0.8460 c3         1 OP2       0.137400
     13 O2          -2.8660     0.8810     0.1220 os         1 OP2      -0.389600
     14 C4          -3.6470     1.6700    -0.7390 c3         1 OP2       0.140400
     15 C3          -4.6560     0.8050    -1.4500 c3         1 OP2       0.137400
     16 O1          -5.5810     0.2980    -0.5220 os         1 OP2      -0.387600
     17 C2          -6.5650    -0.5080    -1.1170 c3         1 OP2       0.139400
     18 C1          -7.5030    -1.0360    -0.0620 c3         1 OP2       0.139400
     19 OBC          6.7340     0.4200     1.1180 o          1 OP2      -0.830300
     20 OXT         -8.2100     0.0350     0.5210 oh         1 OP2      -0.585800
     21 H111         5.3550     1.1460    -1.5770 h1         1 OP2      -0.003300
     22 H112         6.4040    -0.2270    -1.8950 h1         1 OP2      -0.003300
     23 H101         3.4520    -0.2320    -1.9690 h1         1 OP2       0.007700
     24 H102         4.4570    -1.6580    -2.2310 h1         1 OP2       0.007700
     25 H91C         2.3320    -2.4160    -1.5160 h1         1 OP2       0.012200
     26 H92C         3.4740    -2.7350    -0.2090 h1         1 OP2       0.012200
     27 H81C         0.5740    -2.4650     0.1700 h1         1 OP2       0.018700
     28 H82C         1.7480    -2.6610     1.4720 h1         1 OP2       0.018700
     29 H71C        -0.1870    -1.6420     2.3870 h1         1 OP2       0.026700
     30 H72C         1.1110    -0.4460     2.4050 h1         1 OP2       0.026700
     31 H61C        -1.8000     0.1670     2.4080 h1         1 OP2       0.025700
     32 H62C        -0.4940     1.3550     2.3860 h1         1 OP2       0.025700
     33 H51C        -2.4250     2.3850     1.4770 h1         1 OP2       0.028700
     34 H52C        -1.2550     2.1840     0.1720 h1         1 OP2       0.028700
     35 H41C        -4.1650     2.4660    -0.1850 h1         1 OP2       0.027200
     36 H42C        -3.0230     2.1640    -1.4970 h1         1 OP2       0.027200
     37 H31C        -5.1550     1.4210    -2.2120 h1         1 OP2       0.027200
     38 H32C        -4.1450    -0.0090    -1.9840 h1         1 OP2       0.027200
     39 H21C        -7.1320     0.0550    -1.8730 h1         1 OP2       0.023700
     40 H22C        -6.1140    -1.3660    -1.6340 h1         1 OP2       0.023700
     41 H11C        -8.1750    -1.7530    -0.5510 h1         1 OP2       0.023700
     42 H12C        -6.9280    -1.6000     0.6850 h1         1 OP2       0.023700
     43 HXT         -8.8030    -0.3280     1.1840 ho         1 OP2       0.397000
@<TRIPOS>BOND
     1     1     2 1   
     2     2     3 1   
     3     2    19 1   
     4     3     4 1   
     5     3    21 1   
     6     3    22 1   
     7     4     5 1   
     8     5     6 1   
     9     5    23 1   
    10     5    24 1   
    11     6     7 1   
    12     6    25 1   
    13     6    26 1   
    14     7     8 1   
    15     8     9 1   
    16     8    27 1   
    17     8    28 1   
    18     9    10 1   
    19     9    29 1   
    20     9    30 1   
    21    10    11 1   
    22    11    12 1   
    23    11    31 1   
    24    11    32 1   
    25    12    13 1   
    26    12    33 1   
    27    12    34 1   
    28    13    14 1   
    29    14    15 1   
    30    14    35 1   
    31    14    36 1   
    32    15    16 1   
    33    15    37 1   
    34    15    38 1   
    35    16    17 1   
    36    17    18 1   
    37    17    39 1   
    38    17    40 1   
    39    18    20 1   
    40    18    41 1   
    41    18    42 1   
    42    20    43 1   
@<TRIPOS>SUBSTRUCTURE
     1 OP2         1 TEMP              0 ****  ****    0 ROOT
