@<TRIPOS>MOLECULE
OP2
   43    42     1     0     0
SMALL
No Charge or Current Charge


@<TRIPOS>ATOM
      1 O6           8.2400     1.4040    -0.0040 o          1 OP2      -0.725000
      2 C12          7.3270     0.6330     0.2660 c          1 OP2       0.726000
      3 C11          6.2700     0.3410    -0.8530 c3         1 OP2       0.011600
      4 O5           5.2180    -0.5710    -0.4500 os         1 OP2      -0.411000
      5 C10          4.2470    -0.8550    -1.4780 c3         1 OP2       0.160600
      6 C9           3.1840    -1.8330    -0.9200 c3         1 OP2       0.163600
      7 O4           2.3410    -1.1330     0.0150 os         1 OP2      -0.421000
      8 C8           1.3100    -1.9450     0.6100 c3         1 OP2       0.165600
      9 C7           0.4750    -1.0720     1.5770 c3         1 OP2       0.160600
     10 O3          -0.3390    -0.1630     0.8080 os         1 OP2      -0.433000
     11 C6          -1.1610     0.7170     1.6000 c3         1 OP2       0.163600
     12 C5          -1.9860     1.6230     0.6550 c3         1 OP2       0.160600
     13 O2          -3.0100     0.8340     0.0190 os         1 OP2      -0.436000
     14 C4          -3.8440     1.5660    -0.9010 c3         1 OP2       0.163600
     15 C3          -4.9000     0.6070    -1.5010 c3         1 OP2       0.160600
     16 O1          -5.8770     0.2870    -0.4900 os         1 OP2      -0.434000
     17 C2          -6.9120    -0.6160    -0.9260 c3         1 OP2       0.162600
     18 C1          -7.8990    -0.8700     0.2460 c3         1 OP2       0.162600
     19 OBC          7.2190     0.0940     1.3620 o          1 OP2      -0.725000
     20 OXT         -8.6570     0.3120     0.5710 oh         1 OP2      -0.708000
     21 H111         5.8330     1.3010    -1.1590 h1         1 OP2      -0.003300
     22 H112         6.8070    -0.0700    -1.7190 h1         1 OP2      -0.003300
     23 H101         3.7580     0.0660    -1.8210 h1         1 OP2       0.007700
     24 H102         4.7390    -1.3220    -2.3410 h1         1 OP2       0.007700
     25 H91C         2.5830    -2.2160    -1.7560 h1         1 OP2       0.012200
     26 H92C         3.6820    -2.6860    -0.4400 h1         1 OP2       0.012200
     27 H81C         0.6540    -2.3750    -0.1580 h1         1 OP2       0.018700
     28 H82C         1.7600    -2.7710     1.1770 h1         1 OP2       0.018700
     29 H71C        -0.1610    -1.7280     2.1860 h1         1 OP2       0.026700
     30 H72C         1.1470    -0.5250     2.2520 h1         1 OP2       0.026700
     31 H61C        -1.8400     0.1460     2.2470 h1         1 OP2       0.025700
     32 H62C        -0.5320     1.3500     2.2390 h1         1 OP2       0.025700
     33 H51C        -2.4400     2.4300     1.2450 h1         1 OP2       0.028700
     34 H52C        -1.3200     2.0790    -0.0900 h1         1 OP2       0.028700
     35 H41C        -4.3500     2.4010    -0.3970 h1         1 OP2       0.027200
     36 H42C        -3.2360     1.9780    -1.7170 h1         1 OP2       0.027200
     37 H31C        -5.3840     1.1020    -2.3530 h1         1 OP2       0.027200
     38 H32C        -4.4030    -0.3000    -1.8710 h1         1 OP2       0.027200
     39 H21C        -7.4600    -0.2010    -1.7830 h1         1 OP2       0.023700
     40 H22C        -6.4750    -1.5750    -1.2350 h1         1 OP2       0.023700
     41 H11C        -8.5790    -1.6820    -0.0440 h1         1 OP2       0.023700
     42 H12C        -7.3310    -1.2150     1.1210 h1         1 OP2       0.023700
     43 HXT         -9.2090     0.0890     1.3570 ho         1 OP2       0.496000
@<TRIPOS>BOND
     1     1     2 1   
     2     2     3 1   
     3     2    19 1   
     4     3     4 1   
     5     3    21 1   
     6     3    22 1   
     7     4     5 1   
     8     5     6 1   
     9     5    23 1   
    10     5    24 1   
    11     6     7 1   
    12     6    25 1   
    13     6    26 1   
    14     7     8 1   
    15     8     9 1   
    16     8    27 1   
    17     8    28 1   
    18     9    10 1   
    19     9    29 1   
    20     9    30 1   
    21    10    11 1   
    22    11    12 1   
    23    11    31 1   
    24    11    32 1   
    25    12    13 1   
    26    12    33 1   
    27    12    34 1   
    28    13    14 1   
    29    14    15 1   
    30    14    35 1   
    31    14    36 1   
    32    15    16 1   
    33    15    37 1   
    34    15    38 1   
    35    16    17 1   
    36    17    18 1   
    37    17    39 1   
    38    17    40 1   
    39    18    20 1   
    40    18    41 1   
    41    18    42 1   
    42    20    43 1   
@<TRIPOS>SUBSTRUCTURE
     1 OP2         1 TEMP              0 ****  ****    0 ROOT
