@<TRIPOS>MOLECULE
OP3
   25    24     1     0     0
SMALL
abcg2


@<TRIPOS>ATOM
      1 CAA        131.4940   127.5730   158.0970 c3         1 OP3       0.153900
      2 CAL        137.4250   125.8480   157.9580 c3         1 OP3      -0.081400
      3 CAM        135.9560   125.6150   157.6290 c3         1 OP3      -0.069400
      4 CAN        138.3380   124.7340   157.4590 c3         1 OP3      -0.053400
      5 CAR        135.0800   126.7490   158.1370 c3         1 OP3      -0.136400
      6 CAT        139.7990   124.9880   157.7900 c3         1 OP3      -0.206400
      7 OAE        133.1210   125.6330   157.2750 o          1 OP3      -0.488000
      8 OAX        132.9050   127.6050   158.2950 os         1 OP3      -0.454100
      9 CBB        133.6140   126.5750   157.8420 c          1 OP3       0.587100
     10 CBC        140.8110   123.9290   157.3070 c          1 OP3       0.718000
     11 O25        140.3670   122.9340   156.6990 o          1 OP3      -0.742000
     12 O1         142.0090   124.1640   157.5730 o          1 OP3      -0.742000
     13 H1         131.1080   128.4860   158.5410 h1         1 OP3       0.040700
     14 H2         131.2380   127.5540   157.0370 h1         1 OP3       0.040700
     15 H3         131.0380   126.7140   158.5890 h1         1 OP3       0.040700
     16 H4         137.5400   125.9560   159.0420 hc         1 OP3       0.023700
     17 H5         137.7460   126.8020   157.5260 hc         1 OP3       0.023700
     18 H6         135.8390   125.5100   156.5470 hc         1 OP3       0.050700
     19 H7         135.6310   124.6680   158.0690 hc         1 OP3       0.050700
     20 H8         138.2160   124.6280   156.3770 hc         1 OP3       0.040200
     21 H9         138.0170   123.7830   157.8920 hc         1 OP3       0.040200
     22 H10        135.1960   126.8640   159.2190 hc         1 OP3       0.065700
     23 H11        135.4040   127.7030   157.7080 hc         1 OP3       0.065700
     24 H12        139.9130   125.0950   158.8760 hc         1 OP3       0.013700
     25 H13        140.1030   125.9590   157.3810 hc         1 OP3       0.013700
@<TRIPOS>BOND
     1     1     8 1   
     2     1    13 1   
     3     1    14 1   
     4     1    15 1   
     5     2     3 1   
     6     2     4 1   
     7     2    16 1   
     8     2    17 1   
     9     3     5 1   
    10     3    18 1   
    11     3    19 1   
    12     4     6 1   
    13     4    20 1   
    14     4    21 1   
    15     5     9 1   
    16     5    22 1   
    17     5    23 1   
    18     6    10 1   
    19     6    24 1   
    20     6    25 1   
    21     7     9 2   
    22     8     9 1   
    23    10    11 1   
    24    10    12 1   
@<TRIPOS>SUBSTRUCTURE
     1 OP3         1 TEMP              0 ****  ****    0 ROOT
