@<TRIPOS>MOLECULE
OP3
   25    24     1     0     0
SMALL
No Charge or Current Charge


@<TRIPOS>ATOM
      1 CAA        131.8580   127.6310   157.2120 c3         1 OP3       0.153900
      2 CAL        137.4000   125.7310   158.3440 c3         1 OP3      -0.081400
      3 CAM        135.9090   125.7080   157.9430 c3         1 OP3      -0.069400
      4 CAN        138.3010   124.9350   157.3730 c3         1 OP3      -0.053400
      5 CAR        135.0080   126.5050   158.9160 c3         1 OP3      -0.136400
      6 CAT        139.7960   124.9570   157.7720 c3         1 OP3      -0.206400
      7 OAE        132.7760   125.5500   158.7630 o          1 OP3      -0.488000
      8 OAX        133.2060   127.5460   157.7100 os         1 OP3      -0.454100
      9 CBB        133.5410   126.4620   158.4800 c          1 OP3       0.587100
     10 CBC        140.6280   124.1460   156.7620 c          1 OP3       0.718000
     11 O25        140.7750   122.9500   156.9640 o          1 OP3      -0.742000
     12 O1         141.0650   124.7230   155.7780 o          1 OP3      -0.742000
     13 H1         131.7290   128.5440   156.6160 h1         1 OP3       0.040700
     14 H2         131.6220   126.7710   156.5730 h1         1 OP3       0.040700
     15 H3         131.1370   127.6600   158.0390 h1         1 OP3       0.040700
     16 H4         137.5070   125.3190   159.3550 hc         1 OP3       0.023700
     17 H5         137.7460   126.7720   158.3840 hc         1 OP3       0.023700
     18 H6         135.8000   126.1200   156.9320 hc         1 OP3       0.050700
     19 H7         135.5620   124.6670   157.9020 hc         1 OP3       0.050700
     20 H8         138.1920   125.3470   156.3610 hc         1 OP3       0.040200
     21 H9         137.9540   123.8950   157.3320 hc         1 OP3       0.040200
     22 H10        135.0980   126.0740   159.9200 hc         1 OP3       0.065700
     23 H11        135.3550   127.5450   158.9100 hc         1 OP3       0.065700
     24 H12        139.8480   124.4990   158.7680 hc         1 OP3       0.013700
     25 H13        140.0960   126.0130   157.7560 hc         1 OP3       0.013700
@<TRIPOS>BOND
     1     1     8 1   
     2     1    13 1   
     3     1    14 1   
     4     1    15 1   
     5     2     3 1   
     6     2     4 1   
     7     2    16 1   
     8     2    17 1   
     9     3     5 1   
    10     3    18 1   
    11     3    19 1   
    12     4     6 1   
    13     4    20 1   
    14     4    21 1   
    15     5     9 1   
    16     5    22 1   
    17     5    23 1   
    18     6    10 1   
    19     6    24 1   
    20     6    25 1   
    21     7     9 2   
    22     8     9 1   
    23    10    11 1   
    24    10    12 1   
@<TRIPOS>SUBSTRUCTURE
     1 OP3         1 TEMP              0 ****  ****    0 ROOT
