@<TRIPOS>MOLECULE
OP4
   91    95     1     0     0
SMALL
No Charge or Current Charge


@<TRIPOS>ATOM
      1 F            6.2580     4.1550     2.0140 f          1 OP4      -0.176000
      2 C30          5.8180     2.9550     1.5770 ca         1 OP4       0.136000
      3 C31          5.0130     2.8840     0.4310 ca         1 OP4      -0.099000
      4 C7           4.5390     1.6360    -0.0260 ca         1 OP4      -0.131600
      5 C6           3.6330     1.5550    -1.2230 c          1 OP4       0.626700
      6 O            3.9770     0.8950    -2.1980 o          1 OP4      -0.590100
      7 N            2.4520     2.3570    -1.2570 n          1 OP4      -0.403800
      8 C3           1.6490     2.6590    -0.0190 c3         1 OP4       0.112700
      9 C5           1.6850     1.5830     1.0930 c3         1 OP4      -0.105850
     10 C4           1.8890     4.0730     0.5560 c3         1 OP4      -0.105850
     11 C1           1.7230     2.4620    -2.5600 c3         1 OP4       0.112700
     12 C2           0.6830     1.3310    -2.7390 c3         1 OP4      -0.105850
     13 C            1.0760     3.8470    -2.7960 c3         1 OP4      -0.105850
     14 C29          6.1520     1.7900     2.2810 ca         1 OP4      -0.108000
     15 C28          5.7020     0.5390     1.8190 ca         1 OP4      -0.156000
     16 C8           4.9280     0.4540     0.6400 ca         1 OP4       0.145100
     17 O1           4.4430    -0.7520     0.1730 os         1 OP4      -0.222200
     18 C9           4.9810    -1.9990     0.4410 ca         1 OP4      -0.057900
     19 C12          4.1440    -3.1400     0.5460 ca         1 OP4       0.368900
     20 N2           4.6620    -4.3510     0.8390 nb         1 OP4      -0.249000
     21 C11          6.0010    -4.4260     0.9860 ca         1 OP4       0.148900
     22 N1           6.8840    -3.4160     0.8560 nb         1 OP4      -0.195000
     23 C10          6.3710    -2.2020     0.5750 ca         1 OP4       0.105900
     24 N3           2.7810    -3.0740     0.3220 nn         1 OP4      -0.754300
     25 C15          2.0360    -2.3190    -0.7300 cy         1 OP4       0.210800
     26 C14          0.7600    -3.0720    -0.2220 cy         1 OP4      -0.092000
     27 C13          1.7240    -4.1260     0.4240 cy         1 OP4       0.210800
     28 C27         -0.0910    -2.2510     0.7910 c6         1 OP4      -0.062400
     29 C26         -0.9160    -1.1540     0.0720 c6         1 OP4       0.164800
     30 N4          -1.7800    -1.7220    -1.0050 n3         1 OP4      -0.717600
     31 C17         -0.9760    -2.4820    -2.0030 c6         1 OP4       0.164800
     32 C16         -0.1600    -3.6200    -1.3440 c6         1 OP4      -0.062400
     33 C18         -2.6510    -0.7150    -1.6660 c3         1 OP4       0.169800
     34 C19         -3.6730     0.0340    -0.7530 c6         1 OP4      -0.063700
     35 C24         -4.5990    -0.9460     0.0230 c6         1 OP4      -0.069900
     36 C23         -5.6200    -0.1840     0.9070 c6         1 OP4      -0.087900
     37 C22         -6.4730     0.8020     0.0640 c6         1 OP4       0.226500
     38 C21         -5.5450     1.7860    -0.6910 c6         1 OP4      -0.087900
     39 C20         -4.5240     1.0340    -1.5820 c6         1 OP4      -0.069900
     40 N5          -7.4030     1.5690     0.9110 n7         1 OP4      -0.900300
     41 S           -9.0220     1.1740     0.9420 s6         1 OP4       1.210100
     42 O2          -9.6350     2.0980     1.8970 o          1 OP4      -0.532000
     43 O3          -9.4750     1.1470    -0.4500 o          1 OP4      -0.532000
     44 C25         -9.0330    -0.4740     1.6170 c3         1 OP4      -0.384100
     45 H1           4.7600     3.7960    -0.1040 ha         1 OP4       0.141000
     46 H2           0.5980     2.6670    -0.3340 h1         1 OP4       0.067200
     47 H3           1.6300     0.5760     0.6690 hc         1 OP4       0.041783
     48 H4           2.5880     1.6580     1.7080 hc         1 OP4       0.041783
     49 H5           0.8270     1.7090     1.7640 hc         1 OP4       0.041783
     50 H6           1.0690     4.3470     1.2310 hc         1 OP4       0.041783
     51 H7           2.8150     4.1270     1.1350 hc         1 OP4       0.041783
     52 H8           1.9330     4.8240    -0.2400 hc         1 OP4       0.041783
     53 H9           2.4580     2.3500    -3.3680 h1         1 OP4       0.067200
     54 H10         -0.1410     1.4280    -2.0240 hc         1 OP4       0.041783
     55 H11          0.2580     1.3560    -3.7490 hc         1 OP4       0.041783
     56 H12          1.1500     0.3500    -2.5940 hc         1 OP4       0.041783
     57 H13          0.2590     4.0420    -2.0920 hc         1 OP4       0.041783
     58 H14          1.8240     4.6410    -2.6910 hc         1 OP4       0.041783
     59 H15          0.6650     3.9070    -3.8110 hc         1 OP4       0.041783
     60 H16          6.7560     1.8560     3.1830 ha         1 OP4       0.136000
     61 H17          5.9460    -0.3510     2.3910 ha         1 OP4       0.134000
     62 H18          6.4120    -5.4070     1.2190 h5         1 OP4       0.050100
     63 H19          7.0840    -1.3870     0.4620 h4         1 OP4       0.039100
     64 H20          1.9940    -1.2310    -0.6130 h1         1 OP4       0.065200
     65 H21          2.3240    -2.5720    -1.7580 h1         1 OP4       0.065200
     66 H22          1.9000    -5.0110    -0.2000 h1         1 OP4       0.065200
     67 H23          1.4430    -4.4280     1.4400 h1         1 OP4       0.065200
     68 H24         -0.7760    -2.9210     1.3280 hc         1 OP4       0.055700
     69 H25          0.5490    -1.7890     1.5540 hc         1 OP4       0.055700
     70 H26         -1.5230    -0.6440     0.8330 h1         1 OP4       0.032450
     71 H27         -0.2330    -0.4040    -0.3510 h1         1 OP4       0.032450
     72 H29         -1.6360    -2.9230    -2.7650 h1         1 OP4       0.032450
     73 H30         -0.2870    -1.8040    -2.5290 h1         1 OP4       0.032450
     74 H31          0.4310    -4.1410    -2.1100 hc         1 OP4       0.055700
     75 H32         -0.8510    -4.3650    -0.9280 hc         1 OP4       0.055700
     76 H33         -2.0270     0.0390    -2.1630 h1         1 OP4       0.032700
     77 H34         -3.2310    -1.2120    -2.4550 h1         1 OP4       0.032700
     78 H35         -3.0910     0.6190    -0.0280 hc         1 OP4       0.044700
     79 H36         -5.1340    -1.5940    -0.6860 hc         1 OP4       0.050200
     80 H37         -3.9990    -1.6120     0.6570 hc         1 OP4       0.050200
     81 H38         -6.2600    -0.9110     1.4200 hc         1 OP4       0.046950
     82 H39         -5.0800     0.3640     1.6920 hc         1 OP4       0.046950
     83 H40         -7.0320     0.2300    -0.6940 h1         1 OP4       0.076700
     84 H41         -6.1490     2.4600    -1.3140 hc         1 OP4       0.046950
     85 H42         -5.0090     2.4220     0.0270 hc         1 OP4       0.046950
     86 H43         -3.8680     1.7610    -2.0800 hc         1 OP4       0.050200
     87 H44         -5.0580     0.4990    -2.3810 hc         1 OP4       0.050200
     88 H45         -7.1490     1.4560     1.8890 hn         1 OP4       0.487000
     89 H46         -8.5240    -0.4510     2.5860 h1         1 OP4       0.100033
     90 H47        -10.0810    -0.7670     1.7320 h1         1 OP4       0.100033
     91 H48         -8.5240    -1.1340     0.9060 h1         1 OP4       0.100033
@<TRIPOS>BOND
     1     1     2 1   
     2     2     3 ar  
     3     2    14 ar  
     4     3     4 ar  
     5     3    45 1   
     6     4     5 1   
     7     4    16 ar  
     8     5     6 2   
     9     5     7 1   
    10     7     8 1   
    11     7    11 1   
    12     8     9 1   
    13     8    10 1   
    14     8    46 1   
    15     9    47 1   
    16     9    48 1   
    17     9    49 1   
    18    10    50 1   
    19    10    51 1   
    20    10    52 1   
    21    11    12 1   
    22    11    13 1   
    23    11    53 1   
    24    12    54 1   
    25    12    55 1   
    26    12    56 1   
    27    13    57 1   
    28    13    58 1   
    29    13    59 1   
    30    14    15 ar  
    31    14    60 1   
    32    15    16 ar  
    33    15    61 1   
    34    16    17 1   
    35    17    18 1   
    36    18    19 ar  
    37    18    23 ar  
    38    19    20 ar  
    39    19    24 1   
    40    20    21 ar  
    41    21    22 ar  
    42    21    62 1   
    43    22    23 ar  
    44    23    63 1   
    45    24    25 1   
    46    24    27 1   
    47    25    26 1   
    48    25    64 1   
    49    25    65 1   
    50    26    27 1   
    51    26    28 1   
    52    26    32 1   
    53    27    66 1   
    54    27    67 1   
    55    28    29 1   
    56    28    68 1   
    57    28    69 1   
    58    29    30 1   
    59    29    70 1   
    60    29    71 1   
    61    30    31 1   
    62    30    33 1   
    63    31    32 1   
    64    31    72 1   
    65    31    73 1   
    66    32    74 1   
    67    32    75 1   
    68    33    34 1   
    69    33    76 1   
    70    33    77 1   
    71    34    35 1   
    72    34    39 1   
    73    34    78 1   
    74    35    36 1   
    75    35    79 1   
    76    35    80 1   
    77    36    37 1   
    78    36    81 1   
    79    36    82 1   
    80    37    38 1   
    81    37    40 1   
    82    37    83 1   
    83    38    39 1   
    84    38    84 1   
    85    38    85 1   
    86    39    86 1   
    87    39    87 1   
    88    40    41 1   
    89    40    88 1   
    90    41    42 2   
    91    41    43 2   
    92    41    44 1   
    93    44    89 1   
    94    44    90 1   
    95    44    91 1   
@<TRIPOS>SUBSTRUCTURE
     1 OP4         1 TEMP              0 ****  ****    0 ROOT
