@<TRIPOS>MOLECULE
OP4
   91    95     1     0     0
SMALL
abcg2


@<TRIPOS>ATOM
      1 F            6.5870     3.7070     2.3390 f          1 OP4      -0.176000
      2 C30          6.0470     2.6290     1.7470 ca         1 OP4       0.136000
      3 C31          5.2660     2.8050     0.6220 ca         1 OP4      -0.099000
      4 C7           4.7090     1.6960     0.0010 ca         1 OP4      -0.131600
      5 C6           3.9130     1.8520    -1.2580 c          1 OP4       0.626700
      6 O            4.4410     1.5020    -2.3060 o          1 OP4      -0.590100
      7 N            2.6760     2.3850    -1.1860 n          1 OP4      -0.403800
      8 C3           1.9110     2.6900     0.0400 c3         1 OP4       0.112700
      9 C5           1.9820     1.6540     1.1590 c3         1 OP4      -0.105850
     10 C4           2.1620     4.0910     0.5900 c3         1 OP4      -0.105850
     11 C1           1.9400     2.5250    -2.4570 c3         1 OP4       0.112700
     12 C2           0.9880     1.3520    -2.6610 c3         1 OP4      -0.105850
     13 C            1.2280     3.8650    -2.5930 c3         1 OP4      -0.105850
     14 C29          6.2790     1.3790     2.2790 ca         1 OP4      -0.108000
     15 C28          5.7460     0.2670     1.6420 ca         1 OP4      -0.156000
     16 C8           4.9950     0.4200     0.4850 ca         1 OP4       0.145100
     17 O1           4.4500    -0.6250    -0.2070 os         1 OP4      -0.222200
     18 C9           4.9090    -1.8900     0.0190 ca         1 OP4      -0.057900
     19 C12          4.0060    -2.8920     0.4320 ca         1 OP4       0.368900
     20 N2           4.4750    -4.0910     0.7730 nb         1 OP4      -0.249000
     21 C11          5.7700    -4.3130     0.6260 ca         1 OP4       0.148900
     22 N1           6.6710    -3.4760     0.1440 nb         1 OP4      -0.195000
     23 C10          6.2230    -2.2530    -0.1500 ca         1 OP4       0.105900
     24 N3           2.6800    -2.6720     0.5020 nn         1 OP4      -0.754300
     25 C15          1.8440    -1.9760    -0.4790 cy         1 OP4       0.210800
     26 C14          0.6450    -2.8150     0.0160 cy         1 OP4      -0.092000
     27 C13          1.6690    -3.6890     0.7680 cy         1 OP4       0.210800
     28 C27         -0.2730    -2.0110     0.9240 c6         1 OP4      -0.062400
     29 C26         -1.1190    -1.0420     0.1140 c6         1 OP4       0.164800
     30 N4          -1.8990    -1.7350    -0.8940 n3         1 OP4      -0.717600
     31 C17         -1.0420    -2.4870    -1.7940 c6         1 OP4       0.164800
     32 C16         -0.1870    -3.5000    -1.0500 c6         1 OP4      -0.062400
     33 C18         -2.7520    -0.8370    -1.6510 c3         1 OP4       0.169800
     34 C19         -3.7950    -0.0920    -0.8260 c6         1 OP4      -0.063700
     35 C24         -4.6600    -1.0320     0.0090 c6         1 OP4      -0.069900
     36 C23         -5.7160    -0.2680     0.8010 c6         1 OP4      -0.087900
     37 C22         -6.5920     0.5810    -0.1170 c6         1 OP4       0.226500
     38 C21         -5.7350     1.5220    -0.9600 c6         1 OP4      -0.087900
     39 C20         -4.6800     0.7500    -1.7440 c6         1 OP4      -0.069900
     40 N5          -7.5840     1.3620     0.6240 n7         1 OP4      -0.900300
     41 S           -9.1470     0.9000     0.7570 s6         1 OP4       1.210100
     42 O2          -9.8350     1.9830     1.4450 o          1 OP4      -0.532000
     43 O3          -9.5970     0.4960    -0.5680 o          1 OP4      -0.532000
     44 C25         -9.2120    -0.5380     1.8040 c3         1 OP4      -0.384100
     45 H1           5.0980     3.7980     0.2280 ha         1 OP4       0.141000
     46 H2           0.8740     2.6690    -0.2980 h1         1 OP4       0.067200
     47 H3           1.9550     0.6360     0.7780 hc         1 OP4       0.041783
     48 H4           2.8610     1.7560     1.7920 hc         1 OP4       0.041783
     49 H5           1.1080     1.7830     1.7980 hc         1 OP4       0.041783
     50 H6           1.3890     4.3350     1.3200 hc         1 OP4       0.041783
     51 H7           3.1210     4.1620     1.1010 hc         1 OP4       0.041783
     52 H8           2.1350     4.8490    -0.1900 hc         1 OP4       0.041783
     53 H9           2.6890     2.4850    -3.2440 h1         1 OP4       0.067200
     54 H10          0.2180     1.3060    -1.8880 hc         1 OP4       0.041783
     55 H11          0.4780     1.4420    -3.6210 hc         1 OP4       0.041783
     56 H12          1.5270     0.4040    -2.6610 hc         1 OP4       0.041783
     57 H13          0.4120     3.9940    -1.8810 hc         1 OP4       0.041783
     58 H14          1.9200     4.6990    -2.4820 hc         1 OP4       0.041783
     59 H15          0.7940     3.9260    -3.5910 hc         1 OP4       0.041783
     60 H16          6.8720     1.2600     3.1750 ha         1 OP4       0.136000
     61 H17          5.9330    -0.7100     2.0650 ha         1 OP4       0.134000
     62 H18          6.1240    -5.2950     0.9210 h5         1 OP4       0.050100
     63 H19          6.9490    -1.5310    -0.5120 h4         1 OP4       0.039100
     64 H20          1.7660    -0.8970    -0.3520 h1         1 OP4       0.065200
     65 H21          2.1440    -2.1850    -1.5110 h1         1 OP4       0.065200
     66 H22          1.8790    -4.6440     0.2770 h1         1 OP4       0.065200
     67 H23          1.4770    -3.8690     1.8280 h1         1 OP4       0.065200
     68 H24         -0.9280    -2.6950     1.4720 hc         1 OP4       0.055700
     69 H25          0.3060    -1.4560     1.6690 hc         1 OP4       0.055700
     70 H26         -1.7880    -0.5090     0.7910 h1         1 OP4       0.032450
     71 H27         -0.4710    -0.2720    -0.3460 h1         1 OP4       0.032450
     72 H29         -1.6710    -3.0040    -2.5230 h1         1 OP4       0.032450
     73 H30         -0.3830    -1.8130    -2.3740 h1         1 OP4       0.032450
     74 H31          0.4540    -4.0280    -1.7600 hc         1 OP4       0.055700
     75 H32         -0.8300    -4.2480    -0.5770 hc         1 OP4       0.055700
     76 H33         -2.1490    -0.0970    -2.2110 h1         1 OP4       0.032700
     77 H34         -3.2760    -1.4370    -2.4030 h1         1 OP4       0.032700
     78 H35         -3.2910     0.6050    -0.1440 hc         1 OP4       0.044700
     79 H36         -5.1520    -1.7500    -0.6580 hc         1 OP4       0.050200
     80 H37         -4.0410    -1.6190     0.6890 hc         1 OP4       0.050200
     81 H38         -6.3320    -0.9660     1.3740 hc         1 OP4       0.046950
     82 H39         -5.2250     0.3880     1.5290 hc         1 OP4       0.046950
     83 H40         -7.1340    -0.0810    -0.7980 h1         1 OP4       0.076700
     84 H41         -6.3780     2.0890    -1.6360 hc         1 OP4       0.046950
     85 H42         -5.2470     2.2470    -0.3000 hc         1 OP4       0.046950
     86 H43         -4.0680     1.4480    -2.3220 hc         1 OP4       0.050200
     87 H44         -5.1740     0.0940    -2.4700 hc         1 OP4       0.050200
     88 H45         -7.2360     1.8410     1.4470 hn         1 OP4       0.487000
     89 H46         -8.8090    -0.2890     2.7830 h1         1 OP4       0.100033
     90 H47        -10.2540    -0.8410     1.8970 h1         1 OP4       0.100033
     91 H48         -8.6370    -1.3450     1.3540 h1         1 OP4       0.100033
@<TRIPOS>BOND
     1     1     2 1   
     2     2     3 ar  
     3     2    14 ar  
     4     3     4 ar  
     5     3    45 1   
     6     4     5 1   
     7     4    16 ar  
     8     5     6 2   
     9     5     7 1   
    10     7     8 1   
    11     7    11 1   
    12     8     9 1   
    13     8    10 1   
    14     8    46 1   
    15     9    47 1   
    16     9    48 1   
    17     9    49 1   
    18    10    50 1   
    19    10    51 1   
    20    10    52 1   
    21    11    12 1   
    22    11    13 1   
    23    11    53 1   
    24    12    54 1   
    25    12    55 1   
    26    12    56 1   
    27    13    57 1   
    28    13    58 1   
    29    13    59 1   
    30    14    15 ar  
    31    14    60 1   
    32    15    16 ar  
    33    15    61 1   
    34    16    17 1   
    35    17    18 1   
    36    18    19 ar  
    37    18    23 ar  
    38    19    20 ar  
    39    19    24 1   
    40    20    21 ar  
    41    21    22 ar  
    42    21    62 1   
    43    22    23 ar  
    44    23    63 1   
    45    24    25 1   
    46    24    27 1   
    47    25    26 1   
    48    25    64 1   
    49    25    65 1   
    50    26    27 1   
    51    26    28 1   
    52    26    32 1   
    53    27    66 1   
    54    27    67 1   
    55    28    29 1   
    56    28    68 1   
    57    28    69 1   
    58    29    30 1   
    59    29    70 1   
    60    29    71 1   
    61    30    31 1   
    62    30    33 1   
    63    31    32 1   
    64    31    72 1   
    65    31    73 1   
    66    32    74 1   
    67    32    75 1   
    68    33    34 1   
    69    33    76 1   
    70    33    77 1   
    71    34    35 1   
    72    34    39 1   
    73    34    78 1   
    74    35    36 1   
    75    35    79 1   
    76    35    80 1   
    77    36    37 1   
    78    36    81 1   
    79    36    82 1   
    80    37    38 1   
    81    37    40 1   
    82    37    83 1   
    83    38    39 1   
    84    38    84 1   
    85    38    85 1   
    86    39    86 1   
    87    39    87 1   
    88    40    41 1   
    89    40    88 1   
    90    41    42 2   
    91    41    43 2   
    92    41    44 1   
    93    44    89 1   
    94    44    90 1   
    95    44    91 1   
@<TRIPOS>SUBSTRUCTURE
     1 OP4         1 TEMP              0 ****  ****    0 ROOT
