@<TRIPOS>MOLECULE
OP5
  127   130     1     0     0
SMALL
bcc


@<TRIPOS>ATOM
      1 C1           4.6020     7.6470    24.6190 c6         1 OP5       0.126100
      2 C2           3.7910     6.5850    25.3620 c6         1 OP5       0.130100
      3 O3           3.7190     8.6580    24.1430 os         1 OP5      -0.456600
      4 C42          0.7500     5.3430    21.5640 c3         1 OP5      -0.083700
      5 C43          0.2450     3.8870    21.6410 c3         1 OP5       0.167100
      6 C44          3.0590    -0.6230    25.6000 c3         1 OP5      -0.199100
      7 C46         -2.7250     5.8060    22.2770 c2         1 OP5      -0.150200
      8 C47         -0.9720     6.1930    24.0460 c3         1 OP5      -0.058900
      9 C48          1.6320     5.5960    20.3440 c3         1 OP5      -0.088100
     10 C50         -3.9200     5.5700    23.1430 c6         1 OP5      -0.026500
     11 C51         -4.9970     6.6120    22.8180 c6         1 OP5      -0.097400
     12 C52         -4.4800     4.1600    22.9280 c6         1 OP5      -0.072400
     13 C53         -6.2650     6.3780    23.6300 c6         1 OP5       0.107100
     14 C55         -6.8130     4.9770    23.3800 c6         1 OP5       0.154100
     15 C12          2.2910    10.4270    24.2840 c          1 OP5       0.493100
     16 C14          5.3820     5.9680    21.1050 c3         1 OP5      -0.046700
     17 C17          1.0560    10.0780    23.4660 c          1 OP5       0.600100
     18 C19          6.0770     4.6030    21.3050 c3         1 OP5      -0.043200
     19 C20          6.3640     7.0070    20.5730 c3         1 OP5      -0.087100
     20 C23          5.0980     3.4580    21.3600 c2         1 OP5      -0.094400
     21 C24         -0.0910    10.0050    21.3670 c6         1 OP5       0.045700
     22 C25          2.3970     9.8490    21.4090 c6         1 OP5       0.105000
     23 C26          4.5800     3.0740    22.5300 c2         1 OP5      -0.190200
     24 C27          4.7550     2.8610    20.0290 c3         1 OP5      -0.063900
     25 C28         -0.5960     8.6070    21.0300 c          1 OP5       0.633100
     26 C29          0.0180    10.8960    20.1270 c6         1 OP5      -0.077400
     27 C30          2.4960    10.7720    20.2090 c6         1 OP5      -0.094400
     28 C4           5.4230     7.2000    23.3940 c3         1 OP5       0.168100
     29 C5           2.9690     7.2640    26.4590 c6         1 OP5      -0.114400
     30 O6           4.7050     5.6470    25.8720 os         1 OP5      -0.396600
     31 C7           3.0250     9.3720    25.1380 c6         1 OP5       0.280600
     32 C8           4.6100     6.4500    22.3450 c3         1 OP5      -0.069400
     33 O9           6.5300     6.4240    23.7800 os         1 OP5      -0.392600
     34 C10          2.1210     8.4200    25.9230 c6         1 OP5      -0.055700
     35 O13          3.8680    10.0050    26.0240 oh         1 OP5      -0.588800
     36 O18          2.6410    11.5790    24.3040 o          1 OP5      -0.484100
     37 N21          1.1430    10.0280    22.1320 n          1 OP5      -0.435800
     38 O22          0.0160    10.0130    24.1050 o          1 OP5      -0.590100
     39 C31          3.5160     2.0350    22.7790 c3         1 OP5      -0.109500
     40 O32          0.0560     7.6420    21.6530 os         1 OP5      -0.409900
     41 O33         -1.5400     8.4420    20.3000 o          1 OP5      -0.540000
     42 C34          1.2730    10.6140    19.3180 c6         1 OP5      -0.078400
     43 C35          2.2040     2.8020    22.9030 c          1 OP5       0.601100
     44 C36          3.8260     1.2390    24.0370 c3         1 OP5      -0.174400
     45 C37         -0.4530     6.2900    21.5400 c3         1 OP5       0.182300
     46 C38          1.3650     2.8570    21.6570 c3         1 OP5      -0.188400
     47 O39          1.8760     3.3370    23.9390 o          1 OP5      -0.544100
     48 C40          2.7670     0.2310    24.3990 c          1 OP5       0.575100
     49 O45          1.7490     0.1170    23.7530 o          1 OP5      -0.529100
     50 O49         -0.5750     3.5640    20.5320 oh         1 OP5      -0.603800
     51 C54         -5.7580     3.9380    23.7270 c6         1 OP5      -0.074400
     52 O56         -7.2900     7.2920    23.2990 os         1 OP5      -0.421600
     53 O57         -7.9650     4.7230    24.1480 oh         1 OP5      -0.599800
     54 H1           5.2990     8.0940    25.3410 h1         1 OP5       0.061700
     55 H2           3.0930     6.0980    24.6610 h1         1 OP5       0.050700
     56 H3           1.3370     5.5350    22.4690 hc         1 OP5       0.074700
     57 H4          -0.3290     3.7740    22.5690 h1         1 OP5       0.054700
     58 H5           2.2050    -1.2400    25.8700 hc         1 OP5       0.062367
     59 H6           3.9120    -1.2730    25.3900 hc         1 OP5       0.062367
     60 H7           3.3430    -0.0010    26.4500 hc         1 OP5       0.062367
     61 H8          -2.9440     5.7650    21.2100 ha         1 OP5       0.122000
     62 H9          -1.7640     6.0490    24.7770 hc         1 OP5       0.049700
     63 H10         -0.1940     5.4560    24.2600 hc         1 OP5       0.049700
     64 H11         -0.5340     7.1750    24.2310 hc         1 OP5       0.049700
     65 H12          1.9860     6.6260    20.3140 hc         1 OP5       0.039033
     66 H13          2.5200     4.9650    20.3520 hc         1 OP5       0.039033
     67 H14          1.0930     5.4010    19.4160 hc         1 OP5       0.039033
     68 H15         -3.6550     5.6700    24.2000 hc         1 OP5       0.057700
     69 H16         -4.6040     7.6150    23.0070 hc         1 OP5       0.055200
     70 H17         -5.2390     6.5620    21.7500 hc         1 OP5       0.055200
     71 H18         -4.6800     4.0120    21.8610 hc         1 OP5       0.044700
     72 H19         -3.7300     3.4180    23.2090 hc         1 OP5       0.044700
     73 H20         -6.0240     6.4630    24.7040 h1         1 OP5       0.044700
     74 H21         -7.0380     4.8940    22.3030 h1         1 OP5       0.039700
     75 H22         -8.0400     9.1430    23.6240 h1         1 OP5       0.030700
     76 H23         -7.1050     8.4970    24.9840 h1         1 OP5       0.030700
     77 H24         -6.2750     9.1040    23.5410 h1         1 OP5       0.030700
     78 H28          4.6270     5.8230    20.3250 hc         1 OP5       0.038700
     79 H29          8.4400     6.4540    24.4420 h1         1 OP5       0.028700
     80 H30          7.9420     7.9400    23.6150 h1         1 OP5       0.028700
     81 H31          7.3960     7.6140    25.2690 h1         1 OP5       0.028700
     82 H35          6.7620     4.4420    20.4660 hc         1 OP5       0.057200
     83 H36          6.6860     4.6310    22.2070 hc         1 OP5       0.057200
     84 H37          5.8860     7.9810    20.4510 hc         1 OP5       0.032700
     85 H38          7.2220     7.1360    21.2350 hc         1 OP5       0.032700
     86 H39          6.7490     6.7050    19.5980 hc         1 OP5       0.032700
     87 H40         -0.8760    10.4250    22.0020 h1         1 OP5       0.107700
     88 H41          2.4660     8.8090    21.0750 h1         1 OP5       0.058200
     89 H42          3.2360    10.0090    22.0820 h1         1 OP5       0.058200
     90 H43          4.9200     3.5880    23.4260 ha         1 OP5       0.142000
     91 H44          4.0500     2.0340    20.0800 hc         1 OP5       0.042367
     92 H45          4.3310     3.6180    19.3640 hc         1 OP5       0.042367
     93 H46          5.6610     2.4970    19.5390 hc         1 OP5       0.042367
     94 H47          0.0350    11.9340    20.4680 hc         1 OP5       0.066200
     95 H48         -0.8830    10.7780    19.5260 hc         1 OP5       0.066200
     96 H49          3.4130    10.5340    19.6680 hc         1 OP5       0.054200
     97 H50          2.5790    11.8090    20.5470 hc         1 OP5       0.054200
     98 H51          5.7820     8.1350    22.9340 h1         1 OP5       0.034700
     99 H52          2.2920     6.5440    26.9260 hc         1 OP5       0.059200
    100 H53          3.6400     7.6210    27.2470 hc         1 OP5       0.059200
    101 H54          3.8230     7.1290    22.0070 hc         1 OP5       0.054200
    102 H55          4.0840     5.6020    22.7890 hc         1 OP5       0.054200
    103 H56          1.4060     7.9950    25.2120 hc         1 OP5       0.071700
    104 H57          4.2990    10.7560    25.5950 ho         1 OP5       0.430000
    105 H58          3.4390     1.3580    21.9270 hc         1 OP5       0.074700
    106 H59          1.3260    11.2950    18.4670 hc         1 OP5       0.050200
    107 H60          1.2430     9.5990    18.9070 hc         1 OP5       0.050200
    108 H61          4.7780     0.7120    23.9200 hc         1 OP5       0.073700
    109 H62          3.9750     1.9010    24.8950 hc         1 OP5       0.073700
    110 H63         -0.9470     6.1920    20.5700 h1         1 OP5       0.071700
    111 H64          0.9230     1.8560    21.5770 hc         1 OP5       0.084200
    112 H65          2.0100     2.9470    20.7800 hc         1 OP5       0.084200
    113 H66         -1.4760     3.8410    20.7260 ho         1 OP5       0.409000
    114 H67         -6.1520     2.9380    23.5350 hc         1 OP5       0.055700
    115 H68         -5.5380     3.9950    24.7990 hc         1 OP5       0.055700
    116 H69         -8.5920     5.4340    23.9780 ho         1 OP5       0.419000
    117 C41         -1.4670     6.0750    22.6350 c2         1 OP5      -0.138400
    118 C11          4.1270     4.5430    26.5240 c3         1 OP5       0.117700
    119 C16          1.3490     9.1020    27.0440 c3         1 OP5      -0.084100
    120 C58         -7.1590     8.5600    23.8910 c3         1 OP5       0.125700
    121 C15          7.6130     7.1500    24.3010 c3         1 OP5       0.122700
    122 H25          4.9190     3.8140    26.6960 h1         1 OP5       0.032367
    123 H26          3.6900     4.8020    27.4940 h1         1 OP5       0.032367
    124 H27          3.3500     4.0690    25.9160 h1         1 OP5       0.032367
    125 H32          0.6540     8.3940    27.4960 hc         1 OP5       0.045700
    126 H33          2.0140     9.4620    27.8290 hc         1 OP5       0.045700
    127 H34          0.7630     9.9460    26.6820 hc         1 OP5       0.045700
@<TRIPOS>BOND
     1     1     2 1   
     2     1     3 1   
     3     1    28 1   
     4     1    54 1   
     5     2    29 1   
     6     2    30 1   
     7     2    55 1   
     8     3    31 1   
     9     4     5 1   
    10     4     9 1   
    11     4    45 1   
    12     4    56 1   
    13     5    46 1   
    14     5    50 1   
    15     5    57 1   
    16     6    48 1   
    17     6    58 1   
    18     6    59 1   
    19     6    60 1   
    20     7    10 1   
    21     7    61 1   
    22     7   117 2   
    23     8    62 1   
    24     8    63 1   
    25     8    64 1   
    26     8   117 1   
    27     9    65 1   
    28     9    66 1   
    29     9    67 1   
    30    10    11 1   
    31    10    12 1   
    32    10    68 1   
    33    11    13 1   
    34    11    69 1   
    35    11    70 1   
    36    12    51 1   
    37    12    71 1   
    38    12    72 1   
    39    13    14 1   
    40    13    52 1   
    41    13    73 1   
    42    14    51 1   
    43    14    53 1   
    44    14    74 1   
    45    15    17 1   
    46    15    31 1   
    47    15    36 2   
    48    16    18 1   
    49    16    19 1   
    50    16    32 1   
    51    16    78 1   
    52    17    37 1   
    53    17    38 2   
    54    18    20 1   
    55    18    82 1   
    56    18    83 1   
    57    19    84 1   
    58    19    85 1   
    59    19    86 1   
    60    20    23 2   
    61    20    24 1   
    62    21    25 1   
    63    21    26 1   
    64    21    37 1   
    65    21    87 1   
    66    22    27 1   
    67    22    37 1   
    68    22    88 1   
    69    22    89 1   
    70    23    39 1   
    71    23    90 1   
    72    24    91 1   
    73    24    92 1   
    74    24    93 1   
    75    25    40 1   
    76    25    41 2   
    77    26    42 1   
    78    26    94 1   
    79    26    95 1   
    80    27    42 1   
    81    27    96 1   
    82    27    97 1   
    83    28    32 1   
    84    28    33 1   
    85    28    98 1   
    86    29    34 1   
    87    29    99 1   
    88    29   100 1   
    89    30   118 1   
    90    31    34 1   
    91    31    35 1   
    92    32   101 1   
    93    32   102 1   
    94    33   121 1   
    95    34   103 1   
    96    34   119 1   
    97    35   104 1   
    98    39    43 1   
    99    39    44 1   
   100    39   105 1   
   101    40    45 1   
   102    42   106 1   
   103    42   107 1   
   104    43    46 1   
   105    43    47 2   
   106    44    48 1   
   107    44   108 1   
   108    44   109 1   
   109    45   110 1   
   110    45   117 1   
   111    46   111 1   
   112    46   112 1   
   113    48    49 2   
   114    50   113 1   
   115    51   114 1   
   116    51   115 1   
   117    52   120 1   
   118    53   116 1   
   119    75   120 1   
   120    76   120 1   
   121    77   120 1   
   122    79   121 1   
   123    80   121 1   
   124    81   121 1   
   125   118   122 1   
   126   118   123 1   
   127   118   124 1   
   128   119   125 1   
   129   119   126 1   
   130   119   127 1   
@<TRIPOS>SUBSTRUCTURE
     1 OP5         1 TEMP              0 ****  ****    0 ROOT
