@<TRIPOS>MOLECULE
OP5
  127   130     1     0     0
SMALL
No Charge or Current Charge


@<TRIPOS>ATOM
      1 C1           3.6390     7.9390    25.1320 c6         1 OP5       0.149300
      2 C2           2.4900     6.9370    25.4630 c6         1 OP5       0.153300
      3 O3           3.1110     9.0450    24.3400 os         1 OP5      -0.503000
      4 C42          0.7520     4.9770    20.5050 c3         1 OP5      -0.083700
      5 C43          0.2160     3.5100    20.6230 c3         1 OP5       0.190300
      6 C44          3.1380    -1.4830    24.0710 c3         1 OP5      -0.199100
      7 C46         -2.4260     5.5460    22.1300 c2         1 OP5      -0.200200
      8 C47         -0.2100     6.1050    23.2370 c3         1 OP5      -0.058900
      9 C48          1.5750     5.2220    19.2090 c3         1 OP5      -0.088100
     10 C50         -3.2180     5.3850    23.4230 c6         1 OP5      -0.026500
     11 C51         -3.7740     6.7600    23.8900 c6         1 OP5      -0.097400
     12 C52         -4.3660     4.3530    23.2520 c6         1 OP5      -0.072400
     13 C53         -4.6010     6.6130    25.1970 c6         1 OP5       0.130300
     14 C55         -5.7600     5.5940    24.9850 c6         1 OP5       0.177300
     15 C12          1.7010    10.9870    23.8690 c          1 OP5       0.493100
     16 C14          5.6200     6.4580    21.9000 c3         1 OP5      -0.046700
     17 C17          0.5850    10.6510    22.7780 c          1 OP5       0.533100
     18 C19          6.1580     5.0090    22.0620 c3         1 OP5      -0.043200
     19 C20          6.7630     7.5010    21.8990 c3         1 OP5      -0.087100
     20 C23          5.1790     3.9320    21.6030 c2         1 OP5      -0.094400
     21 C24         -0.0330     9.8340    20.4330 c6         1 OP5       0.045700
     22 C25          2.3680     9.6880    21.2500 c6         1 OP5       0.105000
     23 C26          4.4590     3.2070    22.4810 c2         1 OP5      -0.240200
     24 C27          5.1750     3.7510    20.0870 c3         1 OP5      -0.063900
     25 C28         -0.7170     8.4520    20.6550 c          1 OP5       0.584100
     26 C29          0.5290     9.9950    18.9860 c6         1 OP5      -0.077400
     27 C30          2.8950     9.9520    19.8270 c6         1 OP5      -0.094400
     28 C4           4.8420     7.3330    24.3030 c3         1 OP5       0.191300
     29 C5           1.3230     7.7010    26.1470 c6         1 OP5      -0.114400
     30 O6           2.9510     5.8620    26.3130 os         1 OP5      -0.443000
     31 C7           2.0720     9.8640    24.9250 c6         1 OP5       0.327000
     32 C8           4.4610     6.8270    22.8780 c3         1 OP5      -0.069400
     33 O9           5.4970     6.2470    24.9980 os         1 OP5      -0.439000
     34 C10          0.8620     8.9520    25.3390 c6         1 OP5      -0.055700
     35 O13          2.6590    10.4680    26.0870 oh         1 OP5      -0.651000
     36 O18          2.3440    12.0390    23.7970 o          1 OP5      -0.484100
     37 N21          0.9860    10.1920    21.4920 n          1 OP5      -0.368800
     38 O22         -0.6050    10.8440    23.0170 o          1 OP5      -0.590100
     39 C31          3.5190     2.0370    22.1930 c3         1 OP5      -0.109500
     40 O32          0.1210     7.3570    20.5430 os         1 OP5      -0.433100
     41 O33         -1.8920     8.3850    20.9890 o          1 OP5      -0.491000
     42 C34          1.9290     9.3940    18.7730 c6         1 OP5      -0.078400
     43 C35          2.0380     2.4950    22.1590 c          1 OP5       0.601100
     44 C36          3.7410     0.9090    23.2450 c3         1 OP5      -0.174400
     45 C37         -0.4120     6.0110    20.6840 c3         1 OP5       0.205500
     46 C38          1.3000     2.4240    20.8130 c3         1 OP5      -0.188400
     47 O39          1.4730     2.8750    23.1760 o          1 OP5      -0.544100
     48 C40          3.0090    -0.4180    22.9850 c          1 OP5       0.575100
     49 O45          2.3590    -0.6210    21.9680 o          1 OP5      -0.529100
     50 O49         -0.5450     3.1840    19.4540 oh         1 OP5      -0.666000
     51 C54         -5.2080     4.2160    24.5470 c6         1 OP5      -0.074400
     52 O56         -5.1450     7.8730    25.6620 os         1 OP5      -0.468000
     53 O57         -6.5410     5.4790    26.1820 oh         1 OP5      -0.722000
     54 H1           4.0410     8.3430    26.0710 h1         1 OP5       0.061700
     55 H2           2.1400     6.5010    24.5210 h1         1 OP5       0.050700
     56 H3           1.4520     5.1310    21.3330 hc         1 OP5       0.074700
     57 H4          -0.4420     3.4530    21.5010 h1         1 OP5       0.054700
     58 H5           2.6110    -2.4100    23.8200 hc         1 OP5       0.062367
     59 H6           4.2000    -1.6600    24.2730 hc         1 OP5       0.062367
     60 H7           2.7890    -1.0650    25.0220 hc         1 OP5       0.062367
     61 H8          -3.0020     5.4020    21.2150 ha         1 OP5       0.172000
     62 H9           0.3610     5.2080    23.4920 hc         1 OP5       0.049700
     63 H10          0.5090     6.9010    23.0240 hc         1 OP5       0.049700
     64 H11         -0.7640     6.4020    24.1330 hc         1 OP5       0.049700
     65 H12          2.1440     6.1530    19.2880 hc         1 OP5       0.039033
     66 H13          2.3020     4.4240    19.0340 hc         1 OP5       0.039033
     67 H14          0.9210     5.2890    18.3310 hc         1 OP5       0.039033
     68 H15         -2.5490     4.9990    24.2050 hc         1 OP5       0.057700
     69 H16         -2.9360     7.4510    24.0430 hc         1 OP5       0.055200
     70 H17         -4.4000     7.1970    23.1000 hc         1 OP5       0.055200
     71 H18         -5.0210     4.6560    22.4220 hc         1 OP5       0.044700
     72 H19         -3.9490     3.3740    22.9770 hc         1 OP5       0.044700
     73 H20         -3.9380     6.2210    25.9830 h1         1 OP5       0.044700
     74 H21         -6.3980     5.9760    24.1730 h1         1 OP5       0.039700
     75 H22         -4.7470     9.7520    26.4890 h1         1 OP5       0.030700
     76 H23         -3.5230     8.5110    26.8300 h1         1 OP5       0.030700
     77 H24         -3.6220     9.2540    25.2130 h1         1 OP5       0.030700
     78 H28          5.1840     6.5150    20.8960 hc         1 OP5       0.038700
     79 H29          6.7090     5.7180    26.6130 h1         1 OP5       0.028700
     80 H30          6.9090     7.3890    26.0460 h1         1 OP5       0.028700
     81 H31          5.4690     6.9260    26.9880 h1         1 OP5       0.028700
     82 H35          7.0940     4.9050    21.4980 hc         1 OP5       0.057200
     83 H36          6.4410     4.8450    23.1070 hc         1 OP5       0.057200
     84 H37          6.3630     8.5150    21.7800 hc         1 OP5       0.032700
     85 H38          7.3370     7.4600    22.8320 hc         1 OP5       0.032700
     86 H39          7.4540     7.3140    21.0690 hc         1 OP5       0.032700
     87 H40         -0.8650    10.5470    20.5170 h1         1 OP5       0.107700
     88 H41          2.3480     8.6030    21.4140 h1         1 OP5       0.058200
     89 H42          3.0830    10.1210    21.9610 h1         1 OP5       0.058200
     90 H43          4.5510     3.4340    23.5460 ha         1 OP5       0.192000
     91 H44          4.4500     3.0110    19.7390 hc         1 OP5       0.042367
     92 H45          4.9280     4.6860    19.5720 hc         1 OP5       0.042367
     93 H46          6.1600     3.4300    19.7310 hc         1 OP5       0.042367
     94 H47          0.5770    11.0690    18.7540 hc         1 OP5       0.066200
     95 H48         -0.1770     9.5670    18.2610 hc         1 OP5       0.066200
     96 H49          3.8860     9.4950    19.7080 hc         1 OP5       0.054200
     97 H50          3.0270    11.0330    19.6790 hc         1 OP5       0.054200
     98 H51          5.5540     8.1590    24.1790 h1         1 OP5       0.034700
     99 H52          0.4650     7.0320    26.2900 hc         1 OP5       0.059200
    100 H53          1.6440     8.0100    27.1520 hc         1 OP5       0.059200
    101 H54          3.9020     7.6260    22.3940 hc         1 OP5       0.054200
    102 H55          3.7650     5.9840    22.9590 hc         1 OP5       0.054200
    103 H56          0.3680     8.6010    24.4280 hc         1 OP5       0.071700
    104 H57          3.4050    11.0060    25.7470 ho         1 OP5       0.469000
    105 H58          3.7620     1.6120    21.2140 hc         1 OP5       0.074700
    106 H59          2.2920     9.6360    17.7650 hc         1 OP5       0.050200
    107 H60          1.8880     8.3020    18.8330 hc         1 OP5       0.050200
    108 H61          4.8050     0.6680    23.3520 hc         1 OP5       0.073700
    109 H62          3.5050     1.2350    24.2650 hc         1 OP5       0.073700
    110 H63         -1.1420     5.8320    19.8830 h1         1 OP5       0.071700
    111 H64          0.8350     1.4330    20.7820 hc         1 OP5       0.084200
    112 H65          2.0180     2.3970    19.9870 hc         1 OP5       0.084200
    113 H66         -1.0190     2.3440    19.6390 ho         1 OP5       0.448000
    114 H67         -6.0380     3.5170    24.3770 hc         1 OP5       0.055700
    115 H68         -4.5920     3.7850    25.3490 hc         1 OP5       0.055700
    116 H69         -6.5700     6.3980    26.5420 ho         1 OP5       0.518000
    117 C41         -1.1160     5.8560    22.0410 c2         1 OP5      -0.138400
    118 C11          2.0760     4.7320    26.4870 c3         1 OP5       0.140900
    119 C16         -0.2360     9.7150    26.1430 c3         1 OP5      -0.084100
    120 C58         -4.2110     8.8930    26.0650 c3         1 OP5       0.148900
    121 C15          6.1750     6.5920    26.2190 c3         1 OP5       0.145900
    122 H25          2.5800     3.9490    27.0670 h1         1 OP5       0.032367
    123 H26          1.1630     5.0140    27.0260 h1         1 OP5       0.032367
    124 H27          1.7920     4.3060    25.5160 h1         1 OP5       0.032367
    125 H32         -1.1080     9.0740    26.3180 hc         1 OP5       0.045700
    126 H33          0.1350    10.0370    27.1240 hc         1 OP5       0.045700
    127 H34         -0.5890    10.6100    25.6190 hc         1 OP5       0.045700
@<TRIPOS>BOND
     1     1     2 1   
     2     1     3 1   
     3     1    28 1   
     4     1    54 1   
     5     2    29 1   
     6     2    30 1   
     7     2    55 1   
     8     3    31 1   
     9     4     5 1   
    10     4     9 1   
    11     4    45 1   
    12     4    56 1   
    13     5    46 1   
    14     5    50 1   
    15     5    57 1   
    16     6    48 1   
    17     6    58 1   
    18     6    59 1   
    19     6    60 1   
    20     7    10 1   
    21     7    61 1   
    22     7   117 2   
    23     8    62 1   
    24     8    63 1   
    25     8    64 1   
    26     8   117 1   
    27     9    65 1   
    28     9    66 1   
    29     9    67 1   
    30    10    11 1   
    31    10    12 1   
    32    10    68 1   
    33    11    13 1   
    34    11    69 1   
    35    11    70 1   
    36    12    51 1   
    37    12    71 1   
    38    12    72 1   
    39    13    14 1   
    40    13    52 1   
    41    13    73 1   
    42    14    51 1   
    43    14    53 1   
    44    14    74 1   
    45    15    17 1   
    46    15    31 1   
    47    15    36 2   
    48    16    18 1   
    49    16    19 1   
    50    16    32 1   
    51    16    78 1   
    52    17    37 1   
    53    17    38 2   
    54    18    20 1   
    55    18    82 1   
    56    18    83 1   
    57    19    84 1   
    58    19    85 1   
    59    19    86 1   
    60    20    23 2   
    61    20    24 1   
    62    21    25 1   
    63    21    26 1   
    64    21    37 1   
    65    21    87 1   
    66    22    27 1   
    67    22    37 1   
    68    22    88 1   
    69    22    89 1   
    70    23    39 1   
    71    23    90 1   
    72    24    91 1   
    73    24    92 1   
    74    24    93 1   
    75    25    40 1   
    76    25    41 2   
    77    26    42 1   
    78    26    94 1   
    79    26    95 1   
    80    27    42 1   
    81    27    96 1   
    82    27    97 1   
    83    28    32 1   
    84    28    33 1   
    85    28    98 1   
    86    29    34 1   
    87    29    99 1   
    88    29   100 1   
    89    30   118 1   
    90    31    34 1   
    91    31    35 1   
    92    32   101 1   
    93    32   102 1   
    94    33   121 1   
    95    34   103 1   
    96    34   119 1   
    97    35   104 1   
    98    39    43 1   
    99    39    44 1   
   100    39   105 1   
   101    40    45 1   
   102    42   106 1   
   103    42   107 1   
   104    43    46 1   
   105    43    47 2   
   106    44    48 1   
   107    44   108 1   
   108    44   109 1   
   109    45   110 1   
   110    45   117 1   
   111    46   111 1   
   112    46   112 1   
   113    48    49 2   
   114    50   113 1   
   115    51   114 1   
   116    51   115 1   
   117    52   120 1   
   118    53   116 1   
   119    75   120 1   
   120    76   120 1   
   121    77   120 1   
   122    79   121 1   
   123    80   121 1   
   124    81   121 1   
   125   118   122 1   
   126   118   123 1   
   127   118   124 1   
   128   119   125 1   
   129   119   126 1   
   130   119   127 1   
@<TRIPOS>SUBSTRUCTURE
     1 OP5         1 TEMP              0 ****  ****    0 ROOT
