@<TRIPOS>MOLECULE
OP7
   90    94     1     0     0
SMALL
No Charge or Current Charge


@<TRIPOS>ATOM
      1 C10         73.8690    53.5860    13.3040 ca         1 OP7      -0.097000
      2 C13         75.1940    53.0970    15.7320 ca         1 OP7      -0.109000
      3 C15         73.2250    58.8860    17.5440 c          1 OP7       0.639100
      4 C17         69.7640    58.9680    18.5630 ca         1 OP7      -0.085300
      5 C20         69.8680    58.9080    21.3820 ca         1 OP7      -0.111000
      6 C21         70.0250    57.7210    20.6460 ca         1 OP7      -0.111000
      7 C22         69.9700    57.7510    19.2420 ca         1 OP7      -0.101000
      8 C26         75.3620    61.0730    20.7520 c5         1 OP7       0.372300
      9 C28         73.0530    61.2400    20.6830 c5         1 OP7       0.154600
     10 C01         71.0300    58.5610    16.3670 c3         1 OP7       0.120700
     11 C02         70.9530    58.6120    14.8220 c3         1 OP7      -0.090400
     12 C03         69.7060    59.0000    17.0370 c3         1 OP7      -0.043100
     13 C04         72.2060    58.0770    14.0790 c3         1 OP7       0.168300
     14 C05         72.5720    56.5990    14.4320 c3         1 OP7       0.067700
     15 C07         69.9960    53.6880    14.4370 c3         1 OP7       0.056700
     16 C08         73.8660    56.0970    13.7390 c3         1 OP7      -0.045100
     17 C09         74.2270    54.6680    14.1340 ca         1 OP7      -0.088300
     18 C11         74.1690    52.2680    13.6880 ca         1 OP7      -0.109000
     19 C12         74.8320    52.0230    14.9020 ca         1 OP7      -0.107000
     20 C14         74.8910    54.4160    15.3500 ca         1 OP7      -0.097000
     21 C16         75.1420    59.6080    18.7660 c5         1 OP7       0.162300
     22 C18         69.6080    60.1550    19.3070 ca         1 OP7      -0.101000
     23 C19         69.6580    60.1240    20.7120 ca         1 OP7      -0.111000
     24 C25         76.1620    60.7670    18.6060 c5         1 OP7       0.152600
     25 C27         74.8440    59.6590    20.3210 c5         1 OP7      -0.147700
     26 C29         73.3160    59.7170    20.6880 c5         1 OP7      -0.099400
     27 C41         68.5430    54.0850    14.8210 c5         1 OP7      -0.079700
     28 C42         68.1210    55.5230    14.4190 c5         1 OP7      -0.076400
     29 C43         66.5870    55.5230    14.6850 c5         1 OP7      -0.080400
     30 C44         66.1540    54.0260    14.5650 c5         1 OP7      -0.080400
     31 C45         67.4330    53.2900    14.0860 c5         1 OP7      -0.076400
     32 N30         72.1460    59.3700    16.8630 ns         1 OP7      -0.501900
     33 N31         71.4540    55.6760    14.1700 ns         1 OP7      -0.485900
     34 N32         70.3240    52.3190    14.8860 ns         1 OP7      -0.489900
     35 O33         71.9600    58.2020    12.6690 oh         1 OP7      -0.667000
     36 O34         71.4890    54.5610    16.1630 o          1 OP7      -0.602100
     37 O35         73.4490    57.7060    17.7590 o          1 OP7      -0.541000
     38 O36         73.9830    59.9480    17.9500 os         1 OP7      -0.456100
     39 O37         70.6520    50.1280    14.8520 os         1 OP7      -0.452100
     40 O38         69.8720    51.1660    12.9520 o          1 OP7      -0.553000
     41 O39         75.7030    61.7620    19.5380 os         1 OP7      -0.457000
     42 O40         74.2310    61.7450    21.3370 os         1 OP7      -0.442000
     43 H101        73.3480    53.7660    12.3660 ha         1 OP7       0.115500
     44 H131        75.7050    52.9080    16.6740 ha         1 OP7       0.111000
     45 H201        69.9100    58.8840    22.4690 ha         1 OP7       0.112000
     46 H211        70.1870    56.7780    21.1640 ha         1 OP7       0.113500
     47 H221        70.0890    56.8250    18.6830 ha         1 OP7       0.115500
     48 H241        71.0140    48.0700    14.9100 h1         1 OP7       0.047033
     49 H242        69.6520    48.5610    13.8800 h1         1 OP7       0.047033
     50 H243        71.3270    48.8400    13.3400 h1         1 OP7       0.047033
     51 H261        76.2170    61.0280    21.4400 h2         1 OP7       0.079700
     52 H282        72.1550    61.5240    21.2460 h1         1 OP7       0.052700
     53 H011        71.1950    57.5160    16.6630 h1         1 OP7       0.101700
     54 H021        70.0740    58.0500    14.4880 hc         1 OP7       0.060700
     55 H022        70.7830    59.6510    14.5140 hc         1 OP7       0.060700
     56 H031        68.8980    58.3420    16.6920 hc         1 OP7       0.053200
     57 H032        69.4470    60.0060    16.6860 hc         1 OP7       0.053200
     58 H041        73.0590    58.7100    14.3590 h1         1 OP7       0.040700
     59 H051        72.7850    56.5740    15.5080 h1         1 OP7       0.108700
     60 H071        70.0950    53.7310    13.3450 h1         1 OP7       0.085700
     61 H082        73.7490    56.1590    12.6500 hc         1 OP7       0.047700
     62 H081        74.6920    56.7730    13.9950 hc         1 OP7       0.047700
     63 H111        73.8840    51.4370    13.0460 ha         1 OP7       0.111000
     64 H121        75.0630    51.0020    15.2000 ha         1 OP7       0.109000
     65 H141        75.1640    55.2410    16.0050 ha         1 OP7       0.115500
     66 H161        75.5880    58.6590    18.4380 h1         1 OP7       0.085700
     67 H181        69.4470    61.1030    18.7990 ha         1 OP7       0.115500
     68 H191        69.5350    61.0430    21.2800 ha         1 OP7       0.113500
     69 H251        77.1770    60.4510    18.8860 h1         1 OP7       0.060200
     70 H252        76.1870    61.1810    17.5900 h1         1 OP7       0.060200
     71 H271        75.3680    58.8590    20.8550 hc         1 OP7       0.077700
     72 H292        73.1480    59.3170    21.6950 hc         1 OP7       0.066700
     73 H291        72.6480    59.1570    20.0290 hc         1 OP7       0.066700
     74 H1          68.4580    53.9550    15.9090 hc         1 OP7       0.065700
     75 H421        68.3410    55.7280    13.3640 hc         1 OP7       0.046700
     76 H422        68.6310    56.2880    15.0130 hc         1 OP7       0.046700
     77 H431        66.3590    55.9110    15.6850 hc         1 OP7       0.044700
     78 H432        66.0580    56.1620    13.9690 hc         1 OP7       0.044700
     79 H441        65.8230    53.6410    15.5370 hc         1 OP7       0.044700
     80 H442        65.3190    53.8900    13.8680 hc         1 OP7       0.044700
     81 H451        67.5470    53.3430    12.9960 hc         1 OP7       0.046700
     82 H452        67.4200    52.2290    14.3610 hc         1 OP7       0.046700
     83 H301        72.0950    60.3770    16.7840 hn         1 OP7       0.324500
     84 H311        71.0160    55.7150    13.2580 hn         1 OP7       0.321500
     85 H321        70.6840    52.1870    15.8230 hn         1 OP7       0.341500
     86 H331        72.8300    58.1510    12.2160 ho         1 OP7       0.447000
     87 C06         71.0430    54.6730    15.0270 c          1 OP7       0.584100
     88 C23         70.2360    51.1960    14.1170 c          1 OP7       0.643100
     89 H281        72.9870    61.6540    19.6670 h1         1 OP7       0.052700
     90 C24         70.6610    48.8400    14.2130 c3         1 OP7       0.170900
@<TRIPOS>BOND
     1     1    17 ar  
     2     1    18 ar  
     3     1    43 1   
     4     2    19 ar  
     5     2    20 ar  
     6     2    44 1   
     7     3    32 1   
     8     3    37 2   
     9     3    38 1   
    10     4     7 ar  
    11     4    12 1   
    12     4    22 ar  
    13     5     6 ar  
    14     5    23 ar  
    15     5    45 1   
    16     6     7 ar  
    17     6    46 1   
    18     7    47 1   
    19     8    25 1   
    20     8    41 1   
    21     8    42 1   
    22     8    51 1   
    23     9    26 1   
    24     9    42 1   
    25     9    52 1   
    26     9    89 1   
    27    10    11 1   
    28    10    12 1   
    29    10    32 1   
    30    10    53 1   
    31    11    13 1   
    32    11    54 1   
    33    11    55 1   
    34    12    56 1   
    35    12    57 1   
    36    13    14 1   
    37    13    35 1   
    38    13    58 1   
    39    14    16 1   
    40    14    33 1   
    41    14    59 1   
    42    15    27 1   
    43    15    34 1   
    44    15    60 1   
    45    15    87 1   
    46    16    17 1   
    47    16    61 1   
    48    16    62 1   
    49    17    20 ar  
    50    18    19 ar  
    51    18    63 1   
    52    19    64 1   
    53    20    65 1   
    54    21    24 1   
    55    21    25 1   
    56    21    38 1   
    57    21    66 1   
    58    22    23 ar  
    59    22    67 1   
    60    23    68 1   
    61    24    41 1   
    62    24    69 1   
    63    24    70 1   
    64    25    26 1   
    65    25    71 1   
    66    26    72 1   
    67    26    73 1   
    68    27    28 1   
    69    27    31 1   
    70    27    74 1   
    71    28    29 1   
    72    28    75 1   
    73    28    76 1   
    74    29    30 1   
    75    29    77 1   
    76    29    78 1   
    77    30    31 1   
    78    30    79 1   
    79    30    80 1   
    80    31    81 1   
    81    31    82 1   
    82    32    83 1   
    83    33    84 1   
    84    33    87 1   
    85    34    85 1   
    86    34    88 1   
    87    35    86 1   
    88    36    87 2   
    89    39    88 1   
    90    39    90 1   
    91    40    88 2   
    92    48    90 1   
    93    49    90 1   
    94    50    90 1   
@<TRIPOS>SUBSTRUCTURE
     1 OP7         1 TEMP              0 ****  ****    0 ROOT
