@<TRIPOS>MOLECULE
OP7
   90    94     1     0     0
SMALL
bcc


@<TRIPOS>ATOM
      1 C10         73.7870    53.4590    13.7650 ca         1 OP7      -0.115000
      2 C13         75.0590    53.2240    16.2150 ca         1 OP7      -0.127000
      3 C15         73.1970    58.8420    17.5560 c          1 OP7       0.755100
      4 C17         69.7780    58.7570    18.6250 ca         1 OP7      -0.085300
      5 C20         69.9440    58.4960    21.4090 ca         1 OP7      -0.129000
      6 C21         69.8800    57.3650    20.6030 ca         1 OP7      -0.129000
      7 C22         69.7960    57.4980    19.2250 ca         1 OP7      -0.119000
      8 C26         75.4570    61.3530    20.2510 c5         1 OP7       0.325900
      9 C28         73.1710    61.3110    20.4970 c5         1 OP7       0.131400
     10 C01         71.0210    58.4380    16.4600 c3         1 OP7       0.120700
     11 C02         70.8970    58.4470    14.9380 c3         1 OP7      -0.090400
     12 C03         69.7130    58.8780    17.1280 c3         1 OP7      -0.043100
     13 C04         72.1180    57.9060    14.2030 c3         1 OP7       0.145100
     14 C05         72.4500    56.4570    14.5870 c3         1 OP7       0.067700
     15 C07         69.7300    53.7890    14.4660 c3         1 OP7       0.056700
     16 C08         73.7600    55.9710    13.9480 c3         1 OP7      -0.045100
     17 C09         74.1350    54.6120    14.4630 ca         1 OP7      -0.088300
     18 C11         74.0700    52.2010    14.2830 ca         1 OP7      -0.127000
     19 C12         74.7040    52.0790    15.5110 ca         1 OP7      -0.125000
     20 C14         74.7740    54.4770    15.6940 ca         1 OP7      -0.115000
     21 C16         75.2040    59.6140    18.5760 c5         1 OP7       0.139100
     22 C18         69.8470    59.8810    19.4420 ca         1 OP7      -0.119000
     23 C19         69.9240    59.7540    20.8240 ca         1 OP7      -0.129000
     24 C25         76.2100    60.6840    18.2010 c5         1 OP7       0.129400
     25 C27         75.0280    59.8770    20.0780 c5         1 OP7      -0.147700
     26 C29         73.6130    59.8620    20.6530 c5         1 OP7      -0.099400
     27 C41         68.3350    54.1620    14.9620 c5         1 OP7      -0.079700
     28 C42         67.9530    55.6160    14.6580 c5         1 OP7      -0.076400
     29 C43         66.4290    55.5840    14.6250 c5         1 OP7      -0.080400
     30 C44         66.1340    54.2970    13.8570 c5         1 OP7      -0.080400
     31 C45         67.2170    53.3060    14.3190 c5         1 OP7      -0.076400
     32 N30         72.1130    59.2820    16.8960 ns         1 OP7      -0.568900
     33 N31         71.3630    55.5680    14.2450 ns         1 OP7      -0.552900
     34 N32         70.0490    52.4190    14.7900 ns         1 OP7      -0.556900
     35 O33         71.8480    58.0200    12.8200 oh         1 OP7      -0.604800
     36 O34         71.0300    54.6370    16.2870 o          1 OP7      -0.602100
     37 O35         73.4290    57.6880    17.8580 o          1 OP7      -0.590000
     38 O36         74.0140    59.8680    17.8350 os         1 OP7      -0.432900
     39 O37         70.7720    50.3590    14.4700 os         1 OP7      -0.428900
     40 O38         70.6790    51.7520    12.7040 o          1 OP7      -0.602000
     41 O39         75.8650    61.8080    18.9820 os         1 OP7      -0.410600
     42 O40         74.3580    62.0700    20.7030 os         1 OP7      -0.395600
     43 H101        73.2900    53.5410    12.8060 ha         1 OP7       0.133500
     44 H131        75.5580    53.1390    17.1720 ha         1 OP7       0.129000
     45 H201        70.0070    58.3960    22.4850 ha         1 OP7       0.130000
     46 H211        69.8920    56.3790    21.0500 ha         1 OP7       0.131500
     47 H221        69.7440    56.6090    18.6040 ha         1 OP7       0.133500
     48 H241        71.3920    48.4550    14.2730 h1         1 OP7       0.047033
     49 H242        70.4920    49.0510    12.8670 h1         1 OP7       0.047033
     50 H243        72.1690    49.5680    13.1330 h1         1 OP7       0.047033
     51 H261        76.2720    61.4960    20.9710 h2         1 OP7       0.079700
     52 H282        72.4390    61.6190    21.2430 h1         1 OP7       0.052700
     53 H011        71.2350    57.4270    16.8050 h1         1 OP7       0.101700
     54 H021        70.0140    57.8670    14.6530 hc         1 OP7       0.060700
     55 H022        70.7180    59.4730    14.6010 hc         1 OP7       0.060700
     56 H031        68.9060    58.2530    16.7380 hc         1 OP7       0.053200
     57 H032        69.4830    59.9070    16.8390 hc         1 OP7       0.053200
     58 H041        72.9900    58.5150    14.4770 h1         1 OP7       0.040700
     59 H051        72.5830    56.4100    15.6670 h1         1 OP7       0.108700
     60 H071        69.7440    53.8800    13.3780 h1         1 OP7       0.085700
     61 H082        73.6610    55.9450    12.8590 hc         1 OP7       0.047700
     62 H081        74.5450    56.6950    14.1830 hc         1 OP7       0.047700
     63 H111        73.8000    51.3160    13.7220 ha         1 OP7       0.129000
     64 H121        74.9240    51.1000    15.9160 ha         1 OP7       0.127000
     65 H141        75.0440    55.3660    16.2550 ha         1 OP7       0.133500
     66 H161        75.5730    58.6110    18.3680 h1         1 OP7       0.085700
     67 H181        69.8350    60.8680    18.9950 ha         1 OP7       0.133500
     68 H191        69.9730    60.6410    21.4440 ha         1 OP7       0.131500
     69 H251        77.2200    60.3250    18.4370 h1         1 OP7       0.060200
     70 H252        76.1860    60.9540    17.1440 h1         1 OP7       0.060200
     71 H271        75.6930    59.2060    20.6240 hc         1 OP7       0.077700
     72 H292        73.6590    59.6000    21.7120 hc         1 OP7       0.066700
     73 H291        72.9340    59.1530    20.1840 hc         1 OP7       0.066700
     74 H1          68.3130    54.0230    16.0490 hc         1 OP7       0.065700
     75 H421        68.3350    55.9100    13.6740 hc         1 OP7       0.046700
     76 H422        68.3560    56.3190    15.3880 hc         1 OP7       0.046700
     77 H431        66.0400    55.5160    15.6450 hc         1 OP7       0.044700
     78 H432        65.9910    56.4700    14.1650 hc         1 OP7       0.044700
     79 H441        65.1230    53.9220    14.0230 hc         1 OP7       0.044700
     80 H442        66.2310    54.4860    12.7850 hc         1 OP7       0.044700
     81 H451        67.5940    52.7160    13.4820 hc         1 OP7       0.046700
     82 H452        66.8180    52.5940    15.0430 hc         1 OP7       0.046700
     83 H301        72.0410    60.2710    16.7060 hn         1 OP7       0.324500
     84 H311        71.1000    55.5320    13.2710 hn         1 OP7       0.321500
     85 H321        69.9870    52.1390    15.7570 hn         1 OP7       0.341500
     86 H331        72.6780    58.0040    12.3350 ho         1 OP7       0.408000
     87 C06         70.7810    54.7070    15.0910 c          1 OP7       0.651100
     88 C23         70.5170    51.5350    13.8880 c          1 OP7       0.759100
     89 H281        72.7440    61.5010    19.5080 h1         1 OP7       0.052700
     90 C24         71.2310    49.3120    13.6240 c3         1 OP7       0.147700
@<TRIPOS>BOND
     1     1    17 ar  
     2     1    18 ar  
     3     1    43 1   
     4     2    19 ar  
     5     2    20 ar  
     6     2    44 1   
     7     3    32 1   
     8     3    37 2   
     9     3    38 1   
    10     4     7 ar  
    11     4    12 1   
    12     4    22 ar  
    13     5     6 ar  
    14     5    23 ar  
    15     5    45 1   
    16     6     7 ar  
    17     6    46 1   
    18     7    47 1   
    19     8    25 1   
    20     8    41 1   
    21     8    42 1   
    22     8    51 1   
    23     9    26 1   
    24     9    42 1   
    25     9    52 1   
    26     9    89 1   
    27    10    11 1   
    28    10    12 1   
    29    10    32 1   
    30    10    53 1   
    31    11    13 1   
    32    11    54 1   
    33    11    55 1   
    34    12    56 1   
    35    12    57 1   
    36    13    14 1   
    37    13    35 1   
    38    13    58 1   
    39    14    16 1   
    40    14    33 1   
    41    14    59 1   
    42    15    27 1   
    43    15    34 1   
    44    15    60 1   
    45    15    87 1   
    46    16    17 1   
    47    16    61 1   
    48    16    62 1   
    49    17    20 ar  
    50    18    19 ar  
    51    18    63 1   
    52    19    64 1   
    53    20    65 1   
    54    21    24 1   
    55    21    25 1   
    56    21    38 1   
    57    21    66 1   
    58    22    23 ar  
    59    22    67 1   
    60    23    68 1   
    61    24    41 1   
    62    24    69 1   
    63    24    70 1   
    64    25    26 1   
    65    25    71 1   
    66    26    72 1   
    67    26    73 1   
    68    27    28 1   
    69    27    31 1   
    70    27    74 1   
    71    28    29 1   
    72    28    75 1   
    73    28    76 1   
    74    29    30 1   
    75    29    77 1   
    76    29    78 1   
    77    30    31 1   
    78    30    79 1   
    79    30    80 1   
    80    31    81 1   
    81    31    82 1   
    82    32    83 1   
    83    33    84 1   
    84    33    87 1   
    85    34    85 1   
    86    34    88 1   
    87    35    86 1   
    88    36    87 2   
    89    39    88 1   
    90    39    90 1   
    91    40    88 2   
    92    48    90 1   
    93    49    90 1   
    94    50    90 1   
@<TRIPOS>SUBSTRUCTURE
     1 OP7         1 TEMP              0 ****  ****    0 ROOT
