@<TRIPOS>MOLECULE
OP8
  126   130     1     0     0
SMALL
abcg2


@<TRIPOS>ATOM
      1 C1          -8.0240   -17.6830     1.7170 c6         1 OP8       0.152300
      2 C2          -6.6840   -18.4020     1.8510 c6         1 OP8       0.150300
      3 O3          -8.3340   -17.5300     0.3350 os         1 OP8      -0.507000
      4 C41         -3.9080   -14.6100    -0.5630 c3         1 OP8      -0.049700
      5 C42         -2.4880   -14.5270     0.0100 c3         1 OP8       0.186300
      6 C43         -2.0390   -16.7440    -2.6500 c2         1 OP8      -0.194200
      7 C44         -3.7810   -17.7430    -1.1570 c3         1 OP8      -0.052900
      8 C45         -4.5900   -13.2470    -0.6850 c3         1 OP8      -0.085100
      9 C46         -1.1350   -17.9360    -2.6890 c6         1 OP8      -0.026500
     10 C47         -0.6480   -18.2070    -4.1140 c6         1 OP8      -0.103400
     11 C48          0.3530   -19.3600    -4.1820 c6         1 OP8       0.176300
     12 C49          1.5430   -19.0800    -3.2760 c6         1 OP8       0.172300
     13 C55          0.0670   -17.6980    -1.7680 c6         1 OP8      -0.068400
     14 C12         -8.8340   -18.1360    -1.7940 c          1 OP8       0.493100
     15 C14         -7.1850   -13.8470     2.1950 c3         1 OP8      -0.049700
     16 C16         -7.7800   -17.5050    -2.6950 c          1 OP8       0.530100
     17 C18         -6.8600   -13.4490     3.6470 c3         1 OP8      -0.066400
     18 C19         -8.5690   -13.3450     1.7920 c3         1 OP8      -0.089100
     19 C22         -5.3820   -13.2490     3.9090 cx         1 OP8       0.105000
     20 C23         -6.9880   -15.6500    -3.9760 c6         1 OP8       0.046700
     21 C24         -8.3710   -15.2350    -1.9330 c6         1 OP8       0.106000
     22 C25         -4.5460   -14.4220     4.2000 cx         1 OP8       0.092300
     23 C26         -4.8190   -11.9680     3.3510 c3         1 OP8      -0.082100
     24 C27         -5.5500   -15.2920    -3.6220 c          1 OP8       0.585100
     25 C28         -7.7080   -14.4810    -4.6560 c6         1 OP8      -0.078400
     26 C29         -9.1050   -14.1140    -2.6420 c6         1 OP8      -0.094400
     27 C30         -3.0630   -14.5410     3.9120 c3         1 OP8      -0.154700
     28 C4          -8.1330   -16.2670     2.3130 c3         1 OP8       0.187300
     29 C5          -6.7600   -19.7260     1.0900 c6         1 OP8      -0.114400
     30 O6          -6.4380   -18.5810     3.2210 os         1 OP8      -0.440000
     31 C7          -8.4730   -18.7150    -0.4090 c6         1 OP8       0.329000
     32 C8          -6.9970   -15.3450     1.8940 c3         1 OP8      -0.074400
     33 O9          -8.2170   -16.3040     3.7180 os         1 OP8      -0.437000
     34 C10         -7.1750   -19.5210    -0.3680 c6         1 OP8      -0.058700
     35 O13         -9.4990   -19.5120     0.0480 oh         1 OP8      -0.650000
     36 O17         -9.9520   -18.2340    -2.2290 o          1 OP8      -0.483100
     37 N20         -7.7730   -16.1770    -2.8730 n          1 OP8      -0.370800
     38 O21         -7.0950   -18.2970    -3.3240 o          1 OP8      -0.587100
     39 O31         -5.2420   -15.4900    -2.3540 os         1 OP8      -0.439100
     40 O32         -4.7860   -14.8910    -4.4630 o          1 OP8      -0.489000
     41 C33         -8.1950   -13.4420    -3.6590 c6         1 OP8      -0.078400
     42 C34         -2.9250   -15.0460     2.4840 c          1 OP8       0.584100
     43 C35         -2.3990   -15.4860     4.9180 c3         1 OP8      -0.064400
     44 C36         -3.8660   -15.2920    -1.9380 c3         1 OP8       0.213500
     45 C37         -2.4390   -14.0570     1.4620 c3         1 OP8      -0.220400
     46 O38         -3.1880   -16.1950     2.2070 o          1 OP8      -0.527100
     47 C39         -0.8930   -15.5980     4.7310 c3         1 OP8      -0.093100
     48 C40         -3.1720   -16.6240    -1.9600 c2         1 OP8      -0.135400
     49 O50          0.8300   -19.5550    -5.4940 os         1 OP8      -0.442000
     50 O51          2.4320   -20.1720    -3.3570 oh         1 OP8      -0.705000
     51 C54          1.0620   -18.8460    -1.8480 c6         1 OP8      -0.114400
     52 O56         -1.7440   -13.6590    -0.8200 oh         1 OP8      -0.658000
     53 O57         -4.9500   -13.5500     5.2380 op         1 OP8      -0.432000
     54 H1          -8.7890   -18.3110     2.1930 h1         1 OP8       0.063700
     55 H2          -5.8910   -17.7880     1.3950 h1         1 OP8       0.047700
     56 H3          -4.4930   -15.2330     0.1200 hc         1 OP8       0.071700
     57 H4          -2.0570   -15.5350    -0.0210 h1         1 OP8       0.053700
     58 H5          -1.6780   -15.8750    -3.1980 ha         1 OP8       0.179000
     59 H6          -4.5890   -17.3930    -0.5160 hc         1 OP8       0.044700
     60 H7          -4.2030   -18.5140    -1.8050 hc         1 OP8       0.044700
     61 H8          -3.0470   -18.2290    -0.5130 hc         1 OP8       0.044700
     62 H9          -4.5510   -12.6840     0.2460 hc         1 OP8       0.038700
     63 H10         -4.1300   -12.6320    -1.4600 hc         1 OP8       0.038700
     64 H11         -5.6450   -13.3590    -0.9350 hc         1 OP8       0.038700
     65 H12         -1.6670   -18.8230    -2.3290 hc         1 OP8       0.057700
     66 H13         -0.1660   -17.3040    -4.5050 hc         1 OP8       0.055200
     67 H14         -1.5030   -18.4160    -4.7610 hc         1 OP8       0.055200
     68 H15         -0.1380   -20.2820    -3.8230 h1         1 OP8       0.042700
     69 H16          2.0280   -18.1570    -3.6340 h1         1 OP8       0.040700
     70 H17          0.4740   -20.4500    -7.2720 h1         1 OP8       0.027700
     71 H18         -0.2810   -21.2660    -5.8930 h1         1 OP8       0.027700
     72 H19         -0.9760   -19.7670    -6.5300 h1         1 OP8       0.027700
     73 H23          0.5550   -16.7600    -2.0540 hc         1 OP8       0.041200
     74 H24         -0.2760   -17.5690    -0.7380 hc         1 OP8       0.041200
     75 H28         -6.4710   -13.3320     1.5430 hc         1 OP8       0.039700
     76 H32         -7.3680   -12.5060     3.8790 hc         1 OP8       0.066200
     77 H33         -7.2590   -14.1930     4.3360 hc         1 OP8       0.066200
     78 H34         -8.6000   -12.2550     1.8110 hc         1 OP8       0.033367
     79 H35         -8.8310   -13.6680     0.7830 hc         1 OP8       0.033367
     80 H36         -9.3490   -13.7020     2.4690 hc         1 OP8       0.033367
     81 H37         -6.8900   -16.4460    -4.7170 h1         1 OP8       0.108700
     82 H38         -9.0450   -15.7590    -1.2620 h1         1 OP8       0.058200
     83 H39         -7.5790   -14.8100    -1.3100 h1         1 OP8       0.058200
     84 H40         -5.0490   -15.3910     4.2240 h1         1 OP8       0.105700
     85 H41         -3.7540   -11.8480     3.5410 hc         1 OP8       0.046700
     86 H42         -4.9770   -11.9040     2.2750 hc         1 OP8       0.046700
     87 H43         -5.3350   -11.1190     3.8030 hc         1 OP8       0.046700
     88 H44         -7.0430   -14.0470    -5.4020 hc         1 OP8       0.066200
     89 H45         -8.5650   -14.8880    -5.1980 hc         1 OP8       0.066200
     90 H46         -9.4480   -13.4020    -1.8890 hc         1 OP8       0.053700
     91 H47         -9.9930   -14.5080    -3.1430 hc         1 OP8       0.053700
     92 H48         -2.5910   -13.5580     3.9900 hc         1 OP8       0.069700
     93 H49         -9.0730   -15.8640     1.9060 h1         1 OP8       0.038700
     94 H50         -7.4640   -20.3940     1.5960 hc         1 OP8       0.059700
     95 H51         -5.7890   -20.2270     1.0940 hc         1 OP8       0.059700
     96 H52         -6.0590   -15.6910     2.3320 hc         1 OP8       0.056700
     97 H53         -6.8690   -15.4530     0.8130 hc         1 OP8       0.056700
     98 H54         -6.4020   -18.9080    -0.8400 hc         1 OP8       0.071700
     99 H55        -10.3520   -19.1060    -0.1550 ho         1 OP8       0.469000
    100 H56         -7.3480   -12.9720    -3.1470 hc         1 OP8       0.049200
    101 H57         -8.7240   -12.6460    -4.1840 hc         1 OP8       0.049200
    102 H58         -2.6120   -15.1150     5.9230 hc         1 OP8       0.057700
    103 H59         -2.8610   -16.4730     4.8490 hc         1 OP8       0.057700
    104 H60         -3.3780   -14.6180    -2.6430 h1         1 OP8       0.086700
    105 H61         -1.3940   -13.8540     1.7400 hc         1 OP8       0.071700
    106 H62         -2.9450   -13.1000     1.6100 hc         1 OP8       0.071700
    107 H63         -0.4560   -16.2480     5.4890 hc         1 OP8       0.034367
    108 H64         -0.6310   -16.0140     3.7570 hc         1 OP8       0.034367
    109 H65         -0.4100   -14.6230     4.8160 hc         1 OP8       0.034367
    110 H66          3.1630   -20.0040    -2.7540 ho         1 OP8       0.498000
    111 H67          0.5940   -19.7650    -1.4770 hc         1 OP8       0.046700
    112 H68          1.9200   -18.6420    -1.2020 hc         1 OP8       0.046700
    113 H69         -0.8110   -13.7550    -0.6050 ho         1 OP8       0.442000
    114 C53         -9.4990   -16.5890     4.2170 c3         1 OP8       0.144900
    115 C11         -5.1410   -19.0250     3.5370 c3         1 OP8       0.141900
    116 C15         -7.2630   -20.8460    -1.1120 c3         1 OP8      -0.083100
    117 C52         -0.0340   -20.2870    -6.3220 c3         1 OP8       0.148900
    118 H20         -9.4520   -16.5200     5.3040 h1         1 OP8       0.029367
    119 H21        -10.2460   -15.8710     3.8580 h1         1 OP8       0.029367
    120 H22         -9.8480   -17.5950     3.9580 h1         1 OP8       0.029367
    121 H25         -5.0480   -19.0140     4.6220 h1         1 OP8       0.033367
    122 H26         -4.9420   -20.0450     3.1910 h1         1 OP8       0.033367
    123 H27         -4.3720   -18.3670     3.1200 h1         1 OP8       0.033367
    124 H29         -6.2790   -21.3160    -1.1420 hc         1 OP8       0.045700
    125 H30         -7.9470   -21.5380    -0.6230 hc         1 OP8       0.045700
    126 H31         -7.5910   -20.7170    -2.1440 hc         1 OP8       0.045700
@<TRIPOS>BOND
     1     1     2 1   
     2     1     3 1   
     3     1    28 1   
     4     1    54 1   
     5     2    29 1   
     6     2    30 1   
     7     2    55 1   
     8     3    31 1   
     9     4     5 1   
    10     4     8 1   
    11     4    44 1   
    12     4    56 1   
    13     5    45 1   
    14     5    52 1   
    15     5    57 1   
    16     6     9 1   
    17     6    48 2   
    18     6    58 1   
    19     7    48 1   
    20     7    59 1   
    21     7    60 1   
    22     7    61 1   
    23     8    62 1   
    24     8    63 1   
    25     8    64 1   
    26     9    10 1   
    27     9    13 1   
    28     9    65 1   
    29    10    11 1   
    30    10    66 1   
    31    10    67 1   
    32    11    12 1   
    33    11    49 1   
    34    11    68 1   
    35    12    50 1   
    36    12    51 1   
    37    12    69 1   
    38    13    51 1   
    39    13    73 1   
    40    13    74 1   
    41    14    16 1   
    42    14    31 1   
    43    14    36 2   
    44    15    17 1   
    45    15    18 1   
    46    15    32 1   
    47    15    75 1   
    48    16    37 1   
    49    16    38 2   
    50    17    19 1   
    51    17    76 1   
    52    17    77 1   
    53    18    78 1   
    54    18    79 1   
    55    18    80 1   
    56    19    22 1   
    57    19    23 1   
    58    19    53 1   
    59    20    24 1   
    60    20    25 1   
    61    20    37 1   
    62    20    81 1   
    63    21    26 1   
    64    21    37 1   
    65    21    82 1   
    66    21    83 1   
    67    22    27 1   
    68    22    53 1   
    69    22    84 1   
    70    23    85 1   
    71    23    86 1   
    72    23    87 1   
    73    24    39 1   
    74    24    40 2   
    75    25    41 1   
    76    25    88 1   
    77    25    89 1   
    78    26    41 1   
    79    26    90 1   
    80    26    91 1   
    81    27    42 1   
    82    27    43 1   
    83    27    92 1   
    84    28    32 1   
    85    28    33 1   
    86    28    93 1   
    87    29    34 1   
    88    29    94 1   
    89    29    95 1   
    90    30   115 1   
    91    31    34 1   
    92    31    35 1   
    93    32    96 1   
    94    32    97 1   
    95    33   114 1   
    96    34    98 1   
    97    34   116 1   
    98    35    99 1   
    99    39    44 1   
   100    41   100 1   
   101    41   101 1   
   102    42    45 1   
   103    42    46 2   
   104    43    47 1   
   105    43   102 1   
   106    43   103 1   
   107    44    48 1   
   108    44   104 1   
   109    45   105 1   
   110    45   106 1   
   111    47   107 1   
   112    47   108 1   
   113    47   109 1   
   114    49   117 1   
   115    50   110 1   
   116    51   111 1   
   117    51   112 1   
   118    52   113 1   
   119    70   117 1   
   120    71   117 1   
   121    72   117 1   
   122   114   118 1   
   123   114   119 1   
   124   114   120 1   
   125   115   121 1   
   126   115   122 1   
   127   115   123 1   
   128   116   124 1   
   129   116   125 1   
   130   116   126 1   
@<TRIPOS>SUBSTRUCTURE
     1 OP8         1 TEMP              0 ****  ****    0 ROOT
