@<TRIPOS>MOLECULE
OP8
  126   130     1     0     0
SMALL
No Charge or Current Charge


@<TRIPOS>ATOM
      1 C1          -7.8560   -17.8580     1.7310 c6         1 OP8       0.152300
      2 C2          -6.4350   -18.4920     1.5940 c6         1 OP8       0.150300
      3 O3          -8.4290   -17.6170     0.4110 os         1 OP8      -0.507000
      4 C41         -3.9050   -14.2180    -0.9010 c3         1 OP8      -0.049700
      5 C42         -2.4530   -14.2000    -0.3050 c3         1 OP8       0.186300
      6 C43         -2.0990   -16.6380    -2.5870 c2         1 OP8      -0.194200
      7 C44         -4.2290   -17.4350    -1.4670 c3         1 OP8      -0.052900
      8 C45         -4.5330   -12.8010    -1.0120 c3         1 OP8      -0.085100
      9 C46         -1.3640   -17.9700    -2.4930 c6         1 OP8      -0.026500
     10 C47         -0.4100   -18.1660    -3.7010 c6         1 OP8      -0.103400
     11 C48          0.3680   -19.5120    -3.6040 c6         1 OP8       0.176300
     12 C49          1.1470   -19.5980    -2.2460 c6         1 OP8       0.172300
     13 C55         -0.5800   -18.0590    -1.1590 c6         1 OP8      -0.068400
     14 C12         -9.2770   -18.2350    -1.7960 c          1 OP8       0.493100
     15 C14         -7.3800   -13.8760     2.2050 c3         1 OP8      -0.049700
     16 C16         -8.3080   -17.6540    -2.9240 c          1 OP8       0.530100
     17 C18         -6.9710   -13.4410     3.6470 c3         1 OP8      -0.066400
     18 C19         -8.8600   -13.5320     1.9120 c3         1 OP8      -0.089100
     19 C22         -5.4700   -13.2020     3.8430 cx         1 OP8       0.105000
     20 C23         -7.2740   -15.6470    -4.1250 c6         1 OP8       0.046700
     21 C24         -8.5690   -15.3250    -1.9460 c6         1 OP8       0.106000
     22 C25         -4.5560   -14.3850     4.0640 cx         1 OP8       0.092300
     23 C26         -4.9760   -11.8970     3.2150 c3         1 OP8      -0.082100
     24 C27         -5.7500   -15.7100    -3.8090 c          1 OP8       0.585100
     25 C28         -7.7230   -14.2090    -4.5280 c6         1 OP8      -0.078400
     26 C29         -9.0530   -13.9410    -2.4210 c6         1 OP8      -0.094400
     27 C30         -3.0830   -14.3940     3.6440 c3         1 OP8      -0.154700
     28 C4          -7.8980   -16.4740     2.4870 c3         1 OP8       0.187300
     29 C5          -6.5230   -19.7580     0.7000 c6         1 OP8      -0.114400
     30 O6          -5.8820   -18.8260     2.8880 os         1 OP8      -0.440000
     31 C7          -8.6230   -18.7590    -0.4520 c6         1 OP8       0.329000
     32 C8          -7.0370   -15.3520     1.8300 c3         1 OP8      -0.074400
     33 O9          -7.4690   -16.5960     3.8620 os         1 OP8      -0.437000
     34 C10         -7.2470   -19.4860    -0.6520 c6         1 OP8      -0.058700
     35 O13         -9.5460   -19.6210     0.2310 oh         1 OP8      -0.650000
     36 O17        -10.5020   -18.1390    -1.9210 o          1 OP8      -0.483100
     37 N20         -8.1580   -16.2450    -3.0500 n          1 OP8      -0.370800
     38 O21         -7.7490   -18.4040    -3.7210 o          1 OP8      -0.587100
     39 O31         -5.3780   -15.0740    -2.6430 os         1 OP8      -0.439100
     40 O32         -4.9850   -16.3630    -4.5060 o          1 OP8      -0.489000
     41 C33         -8.0180   -13.2790    -3.3400 c6         1 OP8      -0.078400
     42 C34         -2.9730   -14.8210     2.1670 c          1 OP8       0.584100
     43 C35         -2.2430   -15.3200     4.5640 c3         1 OP8      -0.064400
     44 C36         -3.9800   -14.9970    -2.2550 c3         1 OP8       0.213500
     45 C37         -2.3590   -13.8080     1.1870 c3         1 OP8      -0.220400
     46 O38         -3.3410   -15.9290     1.8010 o          1 OP8      -0.527100
     47 C39         -0.7350   -15.3260     4.2360 c3         1 OP8      -0.093100
     48 C40         -3.3510   -16.3950    -2.1470 c2         1 OP8      -0.135400
     49 O50          1.2740   -19.6860    -4.7240 os         1 OP8      -0.442000
     50 O51          1.8370   -20.8530    -2.1040 oh         1 OP8      -0.705000
     51 C54          0.1890   -19.3980    -1.0450 c6         1 OP8      -0.114400
     52 O56         -1.6330   -13.3020    -1.0600 oh         1 OP8      -0.658000
     53 O57         -4.9230   -13.5030     5.1480 op         1 OP8      -0.432000
     54 H1          -8.5080   -18.5600     2.2680 h1         1 OP8       0.063700
     55 H2          -5.7720   -17.7590     1.1170 h1         1 OP8       0.047700
     56 H3          -4.5330   -14.7690    -0.1930 hc         1 OP8       0.071700
     57 H4          -2.0300   -15.2110    -0.3720 h1         1 OP8       0.053700
     58 H5          -1.5280   -15.8270    -3.0440 ha         1 OP8       0.179000
     59 H6          -4.9090   -16.9810    -0.7400 hc         1 OP8       0.044700
     60 H7          -4.8340   -17.9560    -2.2160 hc         1 OP8       0.044700
     61 H8          -3.6480   -18.1900    -0.9290 hc         1 OP8       0.044700
     62 H9          -4.3450   -12.2020    -0.1160 hc         1 OP8       0.038700
     63 H10         -4.1260   -12.2560    -1.8730 hc         1 OP8       0.038700
     64 H11         -5.6190   -12.8700    -1.1280 hc         1 OP8       0.038700
     65 H12         -2.0980   -18.7880    -2.5190 hc         1 OP8       0.057700
     66 H13          0.3050   -17.3340    -3.7560 hc         1 OP8       0.055200
     67 H14         -1.0040   -18.1350    -4.6240 hc         1 OP8       0.055200
     68 H15         -0.3620   -20.3360    -3.6270 h1         1 OP8       0.042700
     69 H16          1.8790   -18.7760    -2.2330 h1         1 OP8       0.040700
     70 H17          1.4760   -20.0740    -6.7680 h1         1 OP8       0.027700
     71 H18         -0.0410   -20.6510    -6.0440 h1         1 OP8       0.027700
     72 H19          0.2010   -18.9130    -6.3590 h1         1 OP8       0.027700
     73 H23          0.1260   -17.2200    -1.0850 hc         1 OP8       0.041200
     74 H24         -1.2690   -17.9570    -0.3090 hc         1 OP8       0.041200
     75 H28         -6.8010   -13.2530     1.5120 hc         1 OP8       0.039700
     76 H32         -7.4970   -12.5090     3.8890 hc         1 OP8       0.066200
     77 H33         -7.3410   -14.1650     4.3800 hc         1 OP8       0.066200
     78 H34         -9.0180   -12.4470     1.9480 hc         1 OP8       0.033367
     79 H35         -9.1520   -13.8790     0.9130 hc         1 OP8       0.033367
     80 H36         -9.5290   -13.9920     2.6480 hc         1 OP8       0.033367
     81 H37         -7.3770   -16.2650    -5.0270 h1         1 OP8       0.108700
     82 H38         -9.3640   -15.7680    -1.3320 h1         1 OP8       0.058200
     83 H39         -7.6990   -15.1780    -1.2940 h1         1 OP8       0.058200
     84 H40         -5.0110   -15.3760     4.1140 h1         1 OP8       0.105700
     85 H41         -4.0260   -11.5650     3.6510 hc         1 OP8       0.046700
     86 H42         -4.8360   -12.0090     2.1370 hc         1 OP8       0.046700
     87 H43         -5.6970   -11.0850     3.3680 hc         1 OP8       0.046700
     88 H44         -6.9680   -13.7510    -5.1830 hc         1 OP8       0.066200
     89 H45         -8.6330   -14.2900    -5.1390 hc         1 OP8       0.066200
     90 H46         -9.2510   -13.2970    -1.5540 hc         1 OP8       0.053700
     91 H47        -10.0080   -14.0510    -2.9530 hc         1 OP8       0.053700
     92 H48         -2.6690   -13.3840     3.7390 hc         1 OP8       0.069700
     93 H49         -8.9480   -16.1570     2.4620 h1         1 OP8       0.038700
     94 H50         -7.0520   -20.5480     1.2500 hc         1 OP8       0.059700
     95 H51         -5.5160   -20.1420     0.4930 hc         1 OP8       0.059700
     96 H52         -5.9810   -15.5510     2.0260 hc         1 OP8       0.056700
     97 H53         -7.1360   -15.4390     0.7450 hc         1 OP8       0.056700
     98 H54         -6.6040   -18.8280    -1.2420 hc         1 OP8       0.071700
     99 H55        -10.3770   -19.1040     0.3010 ho         1 OP8       0.469000
    100 H56         -7.0970   -13.0600    -2.7880 hc         1 OP8       0.049200
    101 H57         -8.4010   -12.3150    -3.7030 hc         1 OP8       0.049200
    102 H58         -2.3710   -14.9990     5.6060 hc         1 OP8       0.057700
    103 H59         -2.6260   -16.3470     4.5050 hc         1 OP8       0.057700
    104 H60         -3.4260   -14.4200    -3.0090 h1         1 OP8       0.086700
    105 H61         -1.3150   -13.6860     1.4980 hc         1 OP8       0.071700
    106 H62         -2.7500   -12.8080     1.4000 hc         1 OP8       0.071700
    107 H63         -0.1930   -15.9510     4.9550 hc         1 OP8       0.034367
    108 H64         -0.5500   -15.7290     3.2330 hc         1 OP8       0.034367
    109 H65         -0.3220   -14.3120     4.2860 hc         1 OP8       0.034367
    110 H66          2.4200   -20.7660    -1.3160 ho         1 OP8       0.498000
    111 H67         -0.5270   -20.2300    -0.9940 hc         1 OP8       0.046700
    112 H68          0.7550   -19.4140    -0.1030 hc         1 OP8       0.046700
    113 H69         -0.7200   -13.3790    -0.7100 ho         1 OP8       0.442000
    114 C53         -8.3060   -17.3870     4.7250 c3         1 OP8       0.144900
    115 C11         -4.5000   -19.2240     2.9390 c3         1 OP8       0.141900
    116 C15         -7.3670   -20.8150    -1.4610 c3         1 OP8      -0.083100
    117 C52          0.6950   -19.8360    -6.0340 c3         1 OP8       0.148900
    118 H20         -7.9490   -17.3200     5.7610 h1         1 OP8       0.029367
    119 H21         -9.3430   -17.0290     4.6990 h1         1 OP8       0.029367
    120 H22         -8.2910   -18.4450     4.4360 h1         1 OP8       0.029367
    121 H25         -4.1750   -19.3290     3.9820 h1         1 OP8       0.033367
    122 H26         -4.3460   -20.1890     2.4410 h1         1 OP8       0.033367
    123 H27         -3.8590   -18.4760     2.4570 h1         1 OP8       0.033367
    124 H29         -6.3760   -21.2300    -1.6820 hc         1 OP8       0.045700
    125 H30         -7.9230   -21.5760    -0.9010 hc         1 OP8       0.045700
    126 H31         -7.8810   -20.6750    -2.4180 hc         1 OP8       0.045700
@<TRIPOS>BOND
     1     1     2 1   
     2     1     3 1   
     3     1    28 1   
     4     1    54 1   
     5     2    29 1   
     6     2    30 1   
     7     2    55 1   
     8     3    31 1   
     9     4     5 1   
    10     4     8 1   
    11     4    44 1   
    12     4    56 1   
    13     5    45 1   
    14     5    52 1   
    15     5    57 1   
    16     6     9 1   
    17     6    48 2   
    18     6    58 1   
    19     7    48 1   
    20     7    59 1   
    21     7    60 1   
    22     7    61 1   
    23     8    62 1   
    24     8    63 1   
    25     8    64 1   
    26     9    10 1   
    27     9    13 1   
    28     9    65 1   
    29    10    11 1   
    30    10    66 1   
    31    10    67 1   
    32    11    12 1   
    33    11    49 1   
    34    11    68 1   
    35    12    50 1   
    36    12    51 1   
    37    12    69 1   
    38    13    51 1   
    39    13    73 1   
    40    13    74 1   
    41    14    16 1   
    42    14    31 1   
    43    14    36 2   
    44    15    17 1   
    45    15    18 1   
    46    15    32 1   
    47    15    75 1   
    48    16    37 1   
    49    16    38 2   
    50    17    19 1   
    51    17    76 1   
    52    17    77 1   
    53    18    78 1   
    54    18    79 1   
    55    18    80 1   
    56    19    22 1   
    57    19    23 1   
    58    19    53 1   
    59    20    24 1   
    60    20    25 1   
    61    20    37 1   
    62    20    81 1   
    63    21    26 1   
    64    21    37 1   
    65    21    82 1   
    66    21    83 1   
    67    22    27 1   
    68    22    53 1   
    69    22    84 1   
    70    23    85 1   
    71    23    86 1   
    72    23    87 1   
    73    24    39 1   
    74    24    40 2   
    75    25    41 1   
    76    25    88 1   
    77    25    89 1   
    78    26    41 1   
    79    26    90 1   
    80    26    91 1   
    81    27    42 1   
    82    27    43 1   
    83    27    92 1   
    84    28    32 1   
    85    28    33 1   
    86    28    93 1   
    87    29    34 1   
    88    29    94 1   
    89    29    95 1   
    90    30   115 1   
    91    31    34 1   
    92    31    35 1   
    93    32    96 1   
    94    32    97 1   
    95    33   114 1   
    96    34    98 1   
    97    34   116 1   
    98    35    99 1   
    99    39    44 1   
   100    41   100 1   
   101    41   101 1   
   102    42    45 1   
   103    42    46 2   
   104    43    47 1   
   105    43   102 1   
   106    43   103 1   
   107    44    48 1   
   108    44   104 1   
   109    45   105 1   
   110    45   106 1   
   111    47   107 1   
   112    47   108 1   
   113    47   109 1   
   114    49   117 1   
   115    50   110 1   
   116    51   111 1   
   117    51   112 1   
   118    52   113 1   
   119    70   117 1   
   120    71   117 1   
   121    72   117 1   
   122   114   118 1   
   123   114   119 1   
   124   114   120 1   
   125   115   121 1   
   126   115   122 1   
   127   115   123 1   
   128   116   124 1   
   129   116   125 1   
   130   116   126 1   
@<TRIPOS>SUBSTRUCTURE
     1 OP8         1 TEMP              0 ****  ****    0 ROOT
