@<TRIPOS>MOLECULE
OPA
   25    26     1     0     0
SMALL
abcg2


@<TRIPOS>ATOM
      1 O1          -1.3290     0.3410    -4.2810 os         1 OPA      -0.479000
      2 C2          -2.0310    -0.0350    -3.1220 c6         1 OPA       0.260900
      3 C3          -1.1230    -0.0190    -1.9310 cc         1 OPA      -0.394300
      4 C4           0.2320     0.0290    -2.0010 cd         1 OPA       0.002700
      5 C5           0.8960     0.0370    -3.3460 c6         1 OPA      -0.034100
      6 C6          -0.1090    -0.3630    -4.4160 c6         1 OPA       0.157600
      7 S13         -1.7050    -0.0620    -0.3050 ss         1 OPA       0.149000
      8 C14         -0.0830    -0.0120     0.2950 cc         1 OPA       0.023600
      9 C15          0.8570     0.0460    -0.7080 cd         1 OPA      -0.269600
     10 C16          2.3350     0.1330    -0.4350 c          1 OPA       0.737600
     11 O17          2.6960     0.0730     0.7690 o          1 OPA      -0.732500
     12 O18          3.0930     0.2650    -1.4110 o          1 OPA      -0.732500
     13 N19          0.2010    -0.0280     1.6380 ns         1 OPA      -0.364100
     14 C20         -0.7090    -0.0660     2.6310 c          1 OPA       0.439100
     15 C21         -0.0920    -0.0750     4.0570 c          1 OPA       0.670000
     16 O22         -0.9140    -0.0960     4.9810 o          1 OPA      -0.697500
     17 O23          1.1490    -0.0590     4.1070 o          1 OPA      -0.697500
     18 O24         -1.9110    -0.0900     2.4170 o          1 OPA      -0.654100
     19 H21         -2.4830    -1.0310    -3.2460 h1         1 OPA       0.017700
     20 H22A        -2.8540     0.6750    -3.0010 h1         1 OPA       0.017700
     21 H51          1.7370    -0.6550    -3.3670 hc         1 OPA       0.065700
     22 H52          1.3110     1.0260    -3.5600 hc         1 OPA       0.065700
     23 H61         -0.2890    -1.4460    -4.3700 h1         1 OPA       0.017700
     24 H62          0.2760    -0.1370    -5.4110 h1         1 OPA       0.017700
     25 H19          1.2090    -0.0070     1.8250 hn         1 OPA       0.411500
@<TRIPOS>BOND
     1     1     2 1   
     2     1     6 1   
     3     2     3 1   
     4     2    19 1   
     5     2    20 1   
     6     3     4 2   
     7     3     7 1   
     8     4     5 1   
     9     4     9 1   
    10     5     6 1   
    11     5    21 1   
    12     5    22 1   
    13     6    23 1   
    14     6    24 1   
    15     7     8 1   
    16     8     9 2   
    17     8    13 1   
    18     9    10 1   
    19    10    11 1   
    20    10    12 1   
    21    13    14 1   
    22    13    25 1   
    23    14    15 1   
    24    14    18 2   
    25    15    16 1   
    26    15    17 1   
@<TRIPOS>SUBSTRUCTURE
     1 OPA         1 TEMP              0 ****  ****    0 ROOT
