@<TRIPOS>MOLECULE
OPA
   25    26     1     0     0
SMALL
No Charge or Current Charge


@<TRIPOS>ATOM
      1 O1          -1.2880     0.3960    -4.3810 os         1 OPA      -0.479000
      2 C2          -2.0580    -0.0550    -3.2490 c6         1 OPA       0.260900
      3 C3          -1.2110    -0.0430    -2.0030 cc         1 OPA      -0.394300
      4 C4           0.1610    -0.0170    -2.0130 cd         1 OPA       0.002700
      5 C5           0.9120     0.0080    -3.3370 c6         1 OPA      -0.034100
      6 C6          -0.0280    -0.2920    -4.5320 c6         1 OPA       0.157600
      7 S13         -1.8500    -0.0790    -0.3770 ss         1 OPA       0.149000
      8 C14         -0.2180    -0.0290     0.2960 cc         1 OPA       0.023600
      9 C15          0.7560     0.0080    -0.6980 cd         1 OPA      -0.269600
     10 C16          2.2320     0.0740    -0.3940 c          1 OPA       0.737600
     11 O17          2.6070     0.0740     0.7710 o          1 OPA      -0.732500
     12 O18          3.0310     0.1350    -1.3140 o          1 OPA      -0.732500
     13 N19          0.0960    -0.0180     1.6510 ns         1 OPA      -0.364100
     14 C20         -0.7340    -0.0480     2.7670 c          1 OPA       0.439100
     15 C21          0.0860    -0.0190     4.1780 c          1 OPA       0.670000
     16 O22         -0.5420    -0.0410     5.2350 o          1 OPA      -0.697500
     17 O23          1.3130     0.0240     4.1290 o          1 OPA      -0.697500
     18 O24         -1.9660    -0.0920     2.6890 o          1 OPA      -0.654100
     19 H21         -2.4250    -1.0710    -3.4540 h1         1 OPA       0.017700
     20 H22A        -2.9330     0.6020    -3.1360 h1         1 OPA       0.017700
     21 H51          1.7220    -0.7310    -3.3460 hc         1 OPA       0.065700
     22 H52          1.3790     0.9910    -3.4840 hc         1 OPA       0.065700
     23 H61         -0.2220    -1.3730    -4.5940 h1         1 OPA       0.017700
     24 H62          0.4460     0.0230    -5.4720 h1         1 OPA       0.017700
     25 H19          1.0930     0.0170     1.8780 hn         1 OPA       0.411500
@<TRIPOS>BOND
     1     1     2 1   
     2     1     6 1   
     3     2     3 1   
     4     2    19 1   
     5     2    20 1   
     6     3     4 2   
     7     3     7 1   
     8     4     5 1   
     9     4     9 1   
    10     5     6 1   
    11     5    21 1   
    12     5    22 1   
    13     6    23 1   
    14     6    24 1   
    15     7     8 1   
    16     8     9 2   
    17     8    13 1   
    18     9    10 1   
    19    10    11 1   
    20    10    12 1   
    21    13    14 1   
    22    13    25 1   
    23    14    15 1   
    24    14    18 2   
    25    15    16 1   
    26    15    17 1   
@<TRIPOS>SUBSTRUCTURE
     1 OPA         1 TEMP              0 ****  ****    0 ROOT
