@<TRIPOS>MOLECULE
OPB
   44    46     1     0     0
SMALL
No Charge or Current Charge


@<TRIPOS>ATOM
      1 C16         -3.9510    -0.5040    -1.0720 ca         1 OPB      -0.101500
      2 C17         -2.8110    -0.9070    -0.3550 ca         1 OPB      -0.101000
      3 C12         -1.7040    -0.0420    -0.2330 ca         1 OPB      -0.050000
      4 C13         -1.7540     1.2290    -0.8410 ca         1 OPB      -0.101000
      5 C14         -2.8940     1.6310    -1.5580 ca         1 OPB      -0.101500
      6 C15         -3.9930     0.7650    -1.6730 ca         1 OPB      -0.108000
      7 C8           0.5520    -0.9030    -3.7850 ca         1 OPB      -0.171000
      8 C9           1.4590     0.0530    -4.2620 ca         1 OPB       0.147100
      9 C10          2.1500     0.8780    -3.3590 ca         1 OPB      -0.171000
     10 C11          1.9280     0.7470    -1.9770 ca         1 OPB      -0.056000
     11 C6           1.0120    -0.2060    -1.4940 ca         1 OPB      -0.094000
     12 C7           0.3280    -1.0370    -2.4040 ca         1 OPB      -0.056000
     13 C21          0.2190     1.1700     6.7300 c3         1 OPB      -0.088100
     14 C20          0.9170     1.2450     5.3580 c3         1 OPB      -0.074400
     15 C18          1.2860     0.1220     3.0680 c3         1 OPB      -0.049400
     16 N2          -0.5220    -0.4370     0.4870 n          1 OPB      -0.101000
     17 C3          -0.4490    -1.1520     1.6950 c          1 OPB       0.566000
     18 C4           1.0090    -1.0960     2.1400 c5         1 OPB      -0.241700
     19 C5           1.7200    -0.9180     0.8050 c          1 OPB       0.563000
     20 N1           0.7990    -0.3270    -0.0780 n          1 OPB      -0.091000
     21 O3          -1.3740    -1.7350     2.2450 o          1 OPB      -0.493000
     22 O5           2.8350    -1.3180     0.4970 o          1 OPB      -0.498000
     23 O9           1.6680     0.1730    -5.6030 oh         1 OPB      -0.529100
     24 H16         -4.8000    -1.1780    -1.1650 ha         1 OPB       0.117000
     25 H17         -2.7900    -1.8990     0.0900 ha         1 OPB       0.127500
     26 H13         -0.9070     1.9070    -0.7580 ha         1 OPB       0.127500
     27 H14         -2.9240     2.6140    -2.0240 ha         1 OPB       0.117000
     28 H15         -4.8760     1.0760    -2.2290 ha         1 OPB       0.116000
     29 H8           0.0210    -1.5440    -4.4850 ha         1 OPB       0.125500
     30 H10          2.8580     1.6210    -3.7200 ha         1 OPB       0.125500
     31 H11          2.4650     1.3890    -1.2810 ha         1 OPB       0.128500
     32 H7          -0.3740    -1.7860    -2.0440 ha         1 OPB       0.128500
     33 H211         0.4830     2.0400     7.3410 hc         1 OPB       0.033367
     34 H212        -0.8710     1.1530     6.6100 hc         1 OPB       0.033367
     35 H213         0.5230     0.2650     7.2710 hc         1 OPB       0.033367
     36 H201         0.6200     2.1760     4.8580 hc         1 OPB       0.037700
     37 H202         2.0020     1.2970     5.5140 hc         1 OPB       0.037700
     38 H191         0.8840    -0.8840     4.9490 hc         1 OPB       0.051200
     39 H192        -0.5000    -0.0030     4.3020 hc         1 OPB       0.051200
     40 H181         0.9810     1.0530     2.5710 hc         1 OPB       0.056200
     41 H182         2.3670     0.2080     3.2360 hc         1 OPB       0.056200
     42 H4           1.3240    -2.0060     2.6600 hc         1 OPB       0.113700
     43 H9           2.3290     0.8830    -5.7520 ho         1 OPB       0.468000
     44 C19          0.5860     0.0440     4.4450 c3         1 OPB      -0.080400
@<TRIPOS>BOND
     1     1     2 ar  
     2     1     6 ar  
     3     1    24 1   
     4     2     3 ar  
     5     2    25 1   
     6     3     4 ar  
     7     3    16 1   
     8     4     5 ar  
     9     4    26 1   
    10     5     6 ar  
    11     5    27 1   
    12     6    28 1   
    13     7     8 ar  
    14     7    12 ar  
    15     7    29 1   
    16     8     9 ar  
    17     8    23 1   
    18     9    10 ar  
    19     9    30 1   
    20    10    11 ar  
    21    10    31 1   
    22    11    12 ar  
    23    11    20 1   
    24    12    32 1   
    25    13    14 1   
    26    13    33 1   
    27    13    34 1   
    28    13    35 1   
    29    14    36 1   
    30    14    37 1   
    31    14    44 1   
    32    15    18 1   
    33    15    40 1   
    34    15    41 1   
    35    15    44 1   
    36    16    17 1   
    37    16    20 1   
    38    17    18 1   
    39    17    21 2   
    40    18    19 1   
    41    18    42 1   
    42    19    20 1   
    43    19    22 2   
    44    23    43 1   
    45    38    44 1   
    46    39    44 1   
@<TRIPOS>SUBSTRUCTURE
     1 OPB         1 TEMP              0 ****  ****    0 ROOT
