@<TRIPOS>MOLECULE
OPB
   44    46     1     0     0
SMALL
abcg2


@<TRIPOS>ATOM
      1 C16         -3.9490    -0.2700    -1.2490 ca         1 OPB      -0.101500
      2 C17         -2.8230    -0.7530    -0.5960 ca         1 OPB      -0.101000
      3 C12         -1.7210     0.0740    -0.4320 ca         1 OPB      -0.050000
      4 C13         -1.7280     1.3730    -0.9310 ca         1 OPB      -0.101000
      5 C14         -2.8510     1.8380    -1.5990 ca         1 OPB      -0.101500
      6 C15         -3.9650     1.0230    -1.7540 ca         1 OPB      -0.108000
      7 C8           0.8560    -1.4510    -3.6290 ca         1 OPB      -0.171000
      8 C9           1.5550    -0.4390    -4.2880 ca         1 OPB       0.147100
      9 C10          1.9600     0.6890    -3.5800 ca         1 OPB      -0.171000
     10 C11          1.6580     0.8100    -2.2330 ca         1 OPB      -0.056000
     11 C6           0.9760    -0.2030    -1.5790 ca         1 OPB      -0.094000
     12 C7           0.5790    -1.3370    -2.2790 ca         1 OPB      -0.056000
     13 C21          0.4490     0.5480     7.0140 c3         1 OPB      -0.088100
     14 C20          0.8980     1.0040     5.6330 c3         1 OPB      -0.074400
     15 C18          1.0960     0.4310     3.1830 c3         1 OPB      -0.049400
     16 N2          -0.5900    -0.4230     0.2580 n          1 OPB      -0.101000
     17 C3          -0.5710    -0.6740     1.6040 c          1 OPB       0.566000
     18 C4           0.8660    -0.5860     2.0560 c5         1 OPB      -0.241700
     19 C5           1.6110    -0.2240     0.7940 c          1 OPB       0.563000
     20 N1           0.6880    -0.0670    -0.1990 n          1 OPB      -0.091000
     21 O3          -1.5590    -0.8740     2.2720 o          1 OPB      -0.493000
     22 O5           2.8060    -0.1080     0.6480 o          1 OPB      -0.498000
     23 O9           1.8030    -0.6040    -5.5990 oh         1 OPB      -0.529100
     24 H16         -4.8080    -0.9150    -1.3730 ha         1 OPB       0.117000
     25 H17         -2.7980    -1.7700    -0.2310 ha         1 OPB       0.127500
     26 H13         -0.8690     2.0170    -0.8030 ha         1 OPB       0.127500
     27 H14         -2.8560     2.8460    -1.9910 ha         1 OPB       0.117000
     28 H15         -4.8390     1.3920    -2.2730 ha         1 OPB       0.116000
     29 H8           0.5370    -2.3290    -4.1750 ha         1 OPB       0.125500
     30 H10          2.4990     1.4850    -4.0800 ha         1 OPB       0.125500
     31 H11          1.9510     1.7040    -1.6980 ha         1 OPB       0.128500
     32 H7           0.0450    -2.1320    -1.7750 ha         1 OPB       0.128500
     33 H211         0.6500     1.3090     7.7690 hc         1 OPB       0.033367
     34 H212        -0.6230     0.3390     7.0330 hc         1 OPB       0.033367
     35 H213         0.9680    -0.3620     7.3160 hc         1 OPB       0.033367
     36 H201         0.3930     1.9380     5.3690 hc         1 OPB       0.037700
     37 H202         1.9680     1.2320     5.6520 hc         1 OPB       0.037700
     38 H191         1.1250    -0.9740     4.8100 hc         1 OPB       0.051200
     39 H192        -0.4480    -0.2570     4.5300 hc         1 OPB       0.051200
     40 H181         0.6180     1.3790     2.9190 hc         1 OPB       0.056200
     41 H182         2.1690     0.6280     3.2270 hc         1 OPB       0.056200
     42 H4           1.2120    -1.5750     2.3810 hc         1 OPB       0.113700
     43 H9           2.2720     0.1590    -5.9550 ho         1 OPB       0.468000
     44 C19          0.6210    -0.0360     4.5530 c3         1 OPB      -0.080400
@<TRIPOS>BOND
     1     1     2 ar  
     2     1     6 ar  
     3     1    24 1   
     4     2     3 ar  
     5     2    25 1   
     6     3     4 ar  
     7     3    16 1   
     8     4     5 ar  
     9     4    26 1   
    10     5     6 ar  
    11     5    27 1   
    12     6    28 1   
    13     7     8 ar  
    14     7    12 ar  
    15     7    29 1   
    16     8     9 ar  
    17     8    23 1   
    18     9    10 ar  
    19     9    30 1   
    20    10    11 ar  
    21    10    31 1   
    22    11    12 ar  
    23    11    20 1   
    24    12    32 1   
    25    13    14 1   
    26    13    33 1   
    27    13    34 1   
    28    13    35 1   
    29    14    36 1   
    30    14    37 1   
    31    14    44 1   
    32    15    18 1   
    33    15    40 1   
    34    15    41 1   
    35    15    44 1   
    36    16    17 1   
    37    16    20 1   
    38    17    18 1   
    39    17    21 2   
    40    18    19 1   
    41    18    42 1   
    42    19    20 1   
    43    19    22 2   
    44    23    43 1   
    45    38    44 1   
    46    39    44 1   
@<TRIPOS>SUBSTRUCTURE
     1 OPB         1 TEMP              0 ****  ****    0 ROOT
