@<TRIPOS>MOLECULE
OPC
  141   140     1     0     0
SMALL
abcg2


@<TRIPOS>ATOM
      1 CBF        -17.9610     8.5610     1.3490 c3         1 OPC      -0.088100
      2 CBE        -16.7330     7.7490     0.9630 c3         1 OPC      -0.074400
      3 CBD        -16.8910     6.2610     1.2530 c3         1 OPC      -0.075400
      4 CBC        -15.6720     5.4380     0.8600 c3         1 OPC      -0.075400
      5 CBB        -15.8310     3.9480     1.1390 c3         1 OPC      -0.074400
      6 CBA        -14.6240     3.1260     0.7070 c3         1 OPC      -0.074400
      7 CAZ        -14.7790     1.6340     0.9760 c3         1 OPC      -0.074400
      8 CAY        -13.5960     0.8160     0.4720 c3         1 OPC      -0.073400
      9 CAX        -13.7410    -0.6830     0.7330 c3         1 OPC      -0.039200
     10 CAW        -12.6330    -1.4720     0.1110 c2         1 OPC      -0.221200
     11 CAV        -11.7580    -2.2330     0.7630 c2         1 OPC      -0.216200
     12 CAU        -10.6310    -2.9780     0.1210 c3         1 OPC      -0.041200
     13 CAT         -9.2600    -2.4980     0.5990 c3         1 OPC      -0.072400
     14 CAS         -8.1090    -3.2460    -0.0590 c3         1 OPC      -0.075400
     15 CAR         -6.7420    -2.7740     0.4180 c3         1 OPC      -0.075400
     16 CAQ         -5.5890    -3.5150    -0.2460 c3         1 OPC      -0.067400
     17 CAP         -4.2440    -3.0230     0.2610 c3         1 OPC      -0.136400
     18 CAO         -3.0610    -3.7460    -0.3280 c          1 OPC       0.622100
     19 OAD         -3.1220    -4.5730    -1.2010 o          1 OPC      -0.485000
     20 OAN         -1.9360    -3.3450     0.2570 os         1 OPC      -0.461100
     21 CAM         -0.6270    -3.8280    -0.1040 c3         1 OPC       0.196000
     22 CAL         -0.3220    -3.6220    -1.5870 c3         1 OPC       0.208600
     23 OAK         -0.7490    -2.3370    -1.9850 os         1 OPC      -0.590400
     24 PAJ          0.0650    -1.4380    -3.0780 p5         1 OPC       1.387800
     25 OBH         -0.9040    -0.9490    -4.1050 o          1 OPC      -0.810500
     26 OAB          1.3430    -2.1150    -3.4790 o          1 OPC      -0.810500
     27 OAI          0.4250    -0.1920    -2.0510 os         1 OPC      -0.587400
     28 CAH          0.9710     0.9710    -2.6300 c3         1 OPC       0.214600
     29 CAG          2.1090     1.5330    -1.8110 c3         1 OPC       0.084600
     30 NAF          3.3940     0.7420    -1.7820 n4         1 OPC      -0.485000
     31 CAE          3.8530     0.4030    -3.1580 c3         1 OPC       0.072233
     32 CBG          4.4210     1.6000    -1.1250 c3         1 OPC       0.072233
     33 CAA          3.2590    -0.5120    -0.9890 c3         1 OPC       0.072233
     34 CAC         -0.4540    -5.2900     0.2770 c3         1 OPC      -0.118100
     35 CBI          0.2440    -2.9230     0.7750 c3         1 OPC       0.162600
     36 OBJ          1.6000    -3.3110     0.5800 os         1 OPC      -0.447100
     37 CBK          2.5240    -2.8010     1.3890 c          1 OPC       0.588100
     38 OCC          2.2700    -2.0170     2.2680 o          1 OPC      -0.497000
     39 CBL          3.8940    -3.3220     1.0570 c3         1 OPC      -0.150400
     40 CBM          5.0180    -2.5360     1.7140 c3         1 OPC      -0.067400
     41 CBN          6.3890    -3.0080     1.2470 c3         1 OPC      -0.079400
     42 CBO          7.5330    -2.2560     1.9130 c3         1 OPC      -0.074400
     43 CBP          8.9030    -2.6960     1.4150 c3         1 OPC      -0.073400
     44 CBQ         10.0520    -1.9430     2.0870 c3         1 OPC      -0.042200
     45 CBR         11.3900    -2.4040     1.5980 c2         1 OPC      -0.218200
     46 CBS         12.2290    -1.7420     0.8010 c2         1 OPC      -0.213200
     47 CBT         12.0550    -0.3640     0.2440 c3         1 OPC      -0.043200
     48 CBU         13.1440     0.5980     0.7220 c3         1 OPC      -0.073400
     49 CBV         12.9570     2.0160     0.1980 c3         1 OPC      -0.073400
     50 CBW         14.0650     2.9660     0.6330 c3         1 OPC      -0.075400
     51 CBX         13.8320     4.4070     0.1960 c3         1 OPC      -0.073400
     52 CBY         14.9640     5.3470     0.5940 c3         1 OPC      -0.075400
     53 CBZ         14.7090     6.7970     0.2060 c3         1 OPC      -0.075400
     54 CCA         15.8530     7.7330     0.5770 c3         1 OPC      -0.075400
     55 CCB         15.5760     9.1830     0.2040 c3         1 OPC      -0.088100
     56 HBF1       -18.8470     8.2130     0.8130 hc         1 OPC       0.031367
     57 HBF2       -18.1710     8.4760     2.4170 hc         1 OPC       0.031367
     58 HBF3       -17.8320     9.6200     1.1210 hc         1 OPC       0.031367
     59 HBE1       -15.8580     8.1310     1.4980 hc         1 OPC       0.036700
     60 HBE2       -16.5200     7.8880    -0.1010 hc         1 OPC       0.036700
     61 HBD1       -17.7720     5.8810     0.7230 hc         1 OPC       0.036700
     62 HBD2       -17.0990     6.1200     2.3200 hc         1 OPC       0.036700
     63 HBC1       -14.7910     5.8150     1.3910 hc         1 OPC       0.036700
     64 HBC2       -15.4640     5.5830    -0.2070 hc         1 OPC       0.036700
     65 HBB1       -16.7240     3.5770     0.6240 hc         1 OPC       0.036700
     66 HBB2       -16.0160     3.7970     2.2080 hc         1 OPC       0.036700
     67 HBA1       -13.7290     3.4960     1.2180 hc         1 OPC       0.037700
     68 HBA2       -14.4460     3.2810    -0.3630 hc         1 OPC       0.037700
     69 HAZ1       -15.6950     1.2720     0.4960 hc         1 OPC       0.037200
     70 HAZ2       -14.9130     1.4670     2.0500 hc         1 OPC       0.037200
     71 HAY1       -12.6730     1.1750     0.9400 hc         1 OPC       0.040200
     72 HAY2       -13.4750     0.9840    -0.6040 hc         1 OPC       0.040200
     73 HAX1       -14.7000    -1.0180     0.3210 hc         1 OPC       0.042700
     74 HAX2       -13.7820    -0.8720     1.8100 hc         1 OPC       0.042700
     75 HAW        -12.5420    -1.3850    -0.9710 ha         1 OPC       0.165000
     76 HAV        -11.8390    -2.3180     1.8460 ha         1 OPC       0.164000
     77 HAU1       -10.6940    -2.8780    -0.9670 hc         1 OPC       0.044200
     78 HAU2       -10.7220    -4.0480     0.3400 hc         1 OPC       0.044200
     79 HAT1        -9.1940    -2.6090     1.6870 hc         1 OPC       0.038700
     80 HAT2        -9.1650    -1.4260     0.3960 hc         1 OPC       0.038700
     81 HAS1        -8.1750    -3.1280    -1.1470 hc         1 OPC       0.040200
     82 HAS2        -8.2120    -4.3190     0.1360 hc         1 OPC       0.040200
     83 HAR1        -6.6750    -2.8960     1.5040 hc         1 OPC       0.035700
     84 HAR2        -6.6430    -1.6990     0.2280 hc         1 OPC       0.035700
     85 HAQ1        -5.6500    -3.3880    -1.3300 hc         1 OPC       0.055200
     86 HAQ2        -5.6890    -4.5870    -0.0540 hc         1 OPC       0.055200
     87 HAP1        -4.1900    -3.1100     1.3500 hc         1 OPC       0.068700
     88 HAP2        -4.1240    -1.9550     0.0490 hc         1 OPC       0.068700
     89 HAL1         0.7520    -3.7580    -1.7340 h1         1 OPC       0.054200
     90 HAL2        -0.8240    -4.3850    -2.1840 h1         1 OPC       0.054200
     91 HAH1         1.2920     0.8250    -3.6660 h1         1 OPC       0.056700
     92 HAH2         0.2190     1.7650    -2.6590 h1         1 OPC       0.056700
     93 HAG1         2.3640     2.5090    -2.2260 hx         1 OPC       0.080700
     94 HAG2         1.8100     1.6790    -0.7730 hx         1 OPC       0.080700
     95 HAE1         3.8610     1.3040    -3.7660 hx         1 OPC       0.095589
     96 HAE2         4.8580    -0.0060    -3.0960 hx         1 OPC       0.095589
     97 HAE3         3.1890    -0.3410    -3.5900 hx         1 OPC       0.095589
     98 HBG1         4.0740     1.8740    -0.1320 hx         1 OPC       0.095589
     99 HBG2         5.3520     1.0450    -1.0480 hx         1 OPC       0.095589
    100 HBG3         4.5800     2.4950    -1.7190 hx         1 OPC       0.095589
    101 HAA1         2.6180    -1.2150    -1.5080 hx         1 OPC       0.095589
    102 HAA2         4.2510    -0.9440    -0.8750 hx         1 OPC       0.095589
    103 HAA3         2.8530    -0.2660    -0.0120 hx         1 OPC       0.095589
    104 HAC1        -0.6530    -5.4390     1.3390 hc         1 OPC       0.050700
    105 HAC2        -1.1190    -5.9360    -0.2930 hc         1 OPC       0.050700
    106 HAC3         0.5670    -5.6170     0.0800 hc         1 OPC       0.050700
    107 HBI1        -0.0430    -3.0440     1.8220 h1         1 OPC       0.067700
    108 HBI2         0.1110    -1.8740     0.4970 h1         1 OPC       0.067700
    109 HBL1         4.0130    -3.3430    -0.0300 hc         1 OPC       0.077200
    110 HBL2         3.9360    -4.3720     1.3670 hc         1 OPC       0.077200
    111 HBM1         4.9480    -2.6260     2.8000 hc         1 OPC       0.046200
    112 HBM2         4.9110    -1.4700     1.4890 hc         1 OPC       0.046200
    113 HBN1         6.4620    -2.8910     0.1600 hc         1 OPC       0.040700
    114 HBN2         6.4940    -4.0800     1.4430 hc         1 OPC       0.040700
    115 HBO1         7.4750    -2.3940     2.9980 hc         1 OPC       0.037200
    116 HBO2         7.4130    -1.1810     1.7370 hc         1 OPC       0.037200
    117 HBP1         8.9630    -2.5450     0.3320 hc         1 OPC       0.041700
    118 HBP2         9.0230    -3.7720     1.5800 hc         1 OPC       0.041700
    119 HBQ1         9.9900    -2.1000     3.1690 hc         1 OPC       0.043700
    120 HBQ2         9.9230    -0.8700     1.9260 hc         1 OPC       0.043700
    121 HBR         11.6780    -3.4040     1.9130 ha         1 OPC       0.169000
    122 HBS         13.1580    -2.2360     0.5260 ha         1 OPC       0.168000
    123 HBT1        11.0720     0.0400     0.4990 hc         1 OPC       0.041200
    124 HBT2        12.0890    -0.4130    -0.8500 hc         1 OPC       0.041200
    125 HBU1        14.1240     0.2170     0.4140 hc         1 OPC       0.042200
    126 HBU2        13.1550     0.6140     1.8170 hc         1 OPC       0.042200
    127 HBV1        11.9900     2.4020     0.5420 hc         1 OPC       0.034200
    128 HBV2        12.9020     1.9990    -0.8960 hc         1 OPC       0.034200
    129 HBW1        15.0210     2.6130     0.2320 hc         1 OPC       0.039200
    130 HBW2        14.1660     2.9320     1.7240 hc         1 OPC       0.039200
    131 HBX1        12.8920     4.7680     0.6280 hc         1 OPC       0.035700
    132 HBX2        13.6980     4.4430    -0.8910 hc         1 OPC       0.035700
    133 HBY1        15.8970     5.0050     0.1310 hc         1 OPC       0.038200
    134 HBY2        15.1250     5.2840     1.6760 hc         1 OPC       0.038200
    135 HBZ1        13.7880     7.1450     0.6870 hc         1 OPC       0.036200
    136 HBZ2        14.5270     6.8600    -0.8730 hc         1 OPC       0.036200
    137 HCA1        16.7700     7.3940     0.0830 hc         1 OPC       0.037200
    138 HCA2        16.0450     7.6610     1.6520 hc         1 OPC       0.037200
    139 HCB1        16.4110     9.8330     0.4700 hc         1 OPC       0.031367
    140 HCB2        15.4030     9.2890    -0.8680 hc         1 OPC       0.031367
    141 HCB3        14.6900     9.5580     0.7190 hc         1 OPC       0.031367
@<TRIPOS>BOND
     1     1     2 1   
     2     1    56 1   
     3     1    57 1   
     4     1    58 1   
     5     2     3 1   
     6     2    59 1   
     7     2    60 1   
     8     3     4 1   
     9     3    61 1   
    10     3    62 1   
    11     4     5 1   
    12     4    63 1   
    13     4    64 1   
    14     5     6 1   
    15     5    65 1   
    16     5    66 1   
    17     6     7 1   
    18     6    67 1   
    19     6    68 1   
    20     7     8 1   
    21     7    69 1   
    22     7    70 1   
    23     8     9 1   
    24     8    71 1   
    25     8    72 1   
    26     9    10 1   
    27     9    73 1   
    28     9    74 1   
    29    10    11 2   
    30    10    75 1   
    31    11    12 1   
    32    11    76 1   
    33    12    13 1   
    34    12    77 1   
    35    12    78 1   
    36    13    14 1   
    37    13    79 1   
    38    13    80 1   
    39    14    15 1   
    40    14    81 1   
    41    14    82 1   
    42    15    16 1   
    43    15    83 1   
    44    15    84 1   
    45    16    17 1   
    46    16    85 1   
    47    16    86 1   
    48    17    18 1   
    49    17    87 1   
    50    17    88 1   
    51    18    19 2   
    52    18    20 1   
    53    20    21 1   
    54    21    22 1   
    55    21    34 1   
    56    21    35 1   
    57    22    23 1   
    58    22    89 1   
    59    22    90 1   
    60    23    24 1   
    61    24    25 1   
    62    24    26 1   
    63    24    27 1   
    64    27    28 1   
    65    28    29 1   
    66    28    91 1   
    67    28    92 1   
    68    29    30 1   
    69    29    93 1   
    70    29    94 1   
    71    30    31 1   
    72    30    32 1   
    73    30    33 1   
    74    31    95 1   
    75    31    96 1   
    76    31    97 1   
    77    32    98 1   
    78    32    99 1   
    79    32   100 1   
    80    33   101 1   
    81    33   102 1   
    82    33   103 1   
    83    34   104 1   
    84    34   105 1   
    85    34   106 1   
    86    35    36 1   
    87    35   107 1   
    88    35   108 1   
    89    36    37 1   
    90    37    38 2   
    91    37    39 1   
    92    39    40 1   
    93    39   109 1   
    94    39   110 1   
    95    40    41 1   
    96    40   111 1   
    97    40   112 1   
    98    41    42 1   
    99    41   113 1   
   100    41   114 1   
   101    42    43 1   
   102    42   115 1   
   103    42   116 1   
   104    43    44 1   
   105    43   117 1   
   106    43   118 1   
   107    44    45 1   
   108    44   119 1   
   109    44   120 1   
   110    45    46 2   
   111    45   121 1   
   112    46    47 1   
   113    46   122 1   
   114    47    48 1   
   115    47   123 1   
   116    47   124 1   
   117    48    49 1   
   118    48   125 1   
   119    48   126 1   
   120    49    50 1   
   121    49   127 1   
   122    49   128 1   
   123    50    51 1   
   124    50   129 1   
   125    50   130 1   
   126    51    52 1   
   127    51   131 1   
   128    51   132 1   
   129    52    53 1   
   130    52   133 1   
   131    52   134 1   
   132    53    54 1   
   133    53   135 1   
   134    53   136 1   
   135    54    55 1   
   136    54   137 1   
   137    54   138 1   
   138    55   139 1   
   139    55   140 1   
   140    55   141 1   
@<TRIPOS>SUBSTRUCTURE
     1 OPC         1 TEMP              0 ****  ****    0 ROOT
