@<TRIPOS>MOLECULE
OPC
  141   140     1     0     0
SMALL
No Charge or Current Charge


@<TRIPOS>ATOM
      1 CBF        -20.7160     6.1840    -0.5130 c3         1 OPC      -0.088100
      2 CBE        -19.4860     5.3410    -0.9010 c3         1 OPC      -0.074400
      3 CBD        -18.6190     4.9380     0.3120 c3         1 OPC      -0.075400
      4 CBC        -17.3890     4.0900    -0.0800 c3         1 OPC      -0.075400
      5 CBB        -16.5210     3.6810     1.1320 c3         1 OPC      -0.074400
      6 CBA        -15.2970     2.8250     0.7370 c3         1 OPC      -0.074400
      7 CAZ        -14.4370     2.4020     1.9480 c3         1 OPC      -0.074400
      8 CAY        -13.2240     1.5300     1.5530 c3         1 OPC      -0.073400
      9 CAX        -12.3750     1.0830     2.7620 c3         1 OPC      -0.039200
     10 CAW        -11.2130     0.2030     2.3500 c2         1 OPC      -0.221200
     11 CAV         -9.9180     0.4660     2.5840 c2         1 OPC      -0.216200
     12 CAU         -8.7620    -0.4220     2.1730 c3         1 OPC      -0.041200
     13 CAT         -7.7330     0.3220     1.2950 c3         1 OPC      -0.072400
     14 CAS         -6.5740    -0.5850     0.8250 c3         1 OPC      -0.075400
     15 CAR         -5.5110     0.1670    -0.0050 c3         1 OPC      -0.075400
     16 CAQ         -4.3720    -0.7520    -0.4980 c3         1 OPC      -0.067400
     17 CAP         -3.2720     0.0100    -1.2730 c3         1 OPC      -0.136400
     18 CAO         -2.1850    -0.9440    -1.7710 c          1 OPC       0.622100
     19 OAD         -2.2530    -1.5280    -2.8430 o          1 OPC      -0.485000
     20 OAN         -1.2280    -1.1480    -0.8030 os         1 OPC      -0.461100
     21 CAM         -0.0840    -2.0310    -0.9990 c3         1 OPC       0.196000
     22 CAL          0.7420    -1.5940    -2.2570 c3         1 OPC       0.208600
     23 OAK          1.1200    -0.2100    -2.1460 os         1 OPC      -0.590400
     24 PAJ          2.3400     0.3210    -3.0500 p5         1 OPC       1.387800
     25 OBH          2.3890     1.8110    -3.0890 o          1 OPC      -0.810500
     26 OAB          2.2950    -0.2690    -4.4190 o          1 OPC      -0.810500
     27 OAI          3.5510    -0.2850    -2.1820 os         1 OPC      -0.587400
     28 CAH          3.9120     0.3630    -0.9560 c3         1 OPC       0.214600
     29 CAG          5.1660    -0.3310    -0.3670 c3         1 OPC       0.084600
     30 NAF          6.4860    -0.3360    -1.1720 n4         1 OPC      -0.485000
     31 CAE          6.8190     1.0790    -1.6760 c3         1 OPC       0.072233
     32 CBG          7.6230    -0.8170    -0.2640 c3         1 OPC       0.072233
     33 CAA          6.3740    -1.2930    -2.3710 c3         1 OPC       0.072233
     34 CAC         -0.6130    -3.4890    -1.1230 c3         1 OPC      -0.118100
     35 CBI          0.7560    -1.8820     0.3050 c3         1 OPC       0.162600
     36 OBJ          1.9510    -2.6890     0.2120 os         1 OPC      -0.447100
     37 CBK          2.7020    -2.8730     1.3430 c          1 OPC       0.588100
     38 OCC          2.3580    -2.5190     2.4630 o          1 OPC      -0.497000
     39 CBL          3.8970    -3.7890     1.0710 c3         1 OPC      -0.150400
     40 CBM          5.1780    -3.3670     1.8320 c3         1 OPC      -0.067400
     41 CBN          6.4520    -4.0590     1.3010 c3         1 OPC      -0.079400
     42 CBO          7.7280    -3.6240     2.0540 c3         1 OPC      -0.074400
     43 CBP          9.0280    -4.1270     1.3880 c3         1 OPC      -0.073400
     44 CBQ         10.2990    -3.5560     2.0510 c3         1 OPC      -0.042200
     45 CBR         11.5640    -3.8990     1.2840 c2         1 OPC      -0.218200
     46 CBS         12.0920    -3.1970     0.2650 c2         1 OPC      -0.213200
     47 CBT         11.5020    -1.9510    -0.3720 c3         1 OPC      -0.043200
     48 CBU         12.0150    -0.6480     0.2770 c3         1 OPC      -0.073400
     49 CBV         11.3010     0.6130    -0.2620 c3         1 OPC      -0.073400
     50 CBW         11.7830     1.9220     0.4020 c3         1 OPC      -0.075400
     51 CBX         11.0170     3.1670    -0.0980 c3         1 OPC      -0.073400
     52 CBY         11.4800     4.4790     0.5740 c3         1 OPC      -0.075400
     53 CBZ         10.6910     5.7170     0.0900 c3         1 OPC      -0.075400
     54 CCA         11.1490     7.0320     0.7600 c3         1 OPC      -0.075400
     55 CCB         10.3550     8.2630     0.2820 c3         1 OPC      -0.088100
     56 HBF1       -21.3680     5.6270     0.1710 hc         1 OPC       0.031367
     57 HBF2       -20.4090     7.1140    -0.0210 hc         1 OPC       0.031367
     58 HBF3       -21.2970     6.4440    -1.4060 hc         1 OPC       0.031367
     59 HBE1       -18.8740     5.9090    -1.6130 hc         1 OPC       0.036700
     60 HBE2       -19.8250     4.4360    -1.4220 hc         1 OPC       0.036700
     61 HBD1       -19.2350     4.3720     1.0230 hc         1 OPC       0.036700
     62 HBD2       -18.2830     5.8440     0.8310 hc         1 OPC       0.036700
     63 HBC1       -16.7730     4.6570    -0.7890 hc         1 OPC       0.036700
     64 HBC2       -17.7270     3.1860    -0.6020 hc         1 OPC       0.036700
     65 HBB1       -17.1390     3.1190     1.8430 hc         1 OPC       0.036700
     66 HBB2       -16.1770     4.5850     1.6500 hc         1 OPC       0.036700
     67 HBA1       -14.6750     3.3900     0.0310 hc         1 OPC       0.037700
     68 HBA2       -15.6430     1.9270     0.2100 hc         1 OPC       0.037700
     69 HAZ1       -15.0630     1.8460     2.6570 hc         1 OPC       0.037200
     70 HAZ2       -14.0810     3.2990     2.4700 hc         1 OPC       0.037200
     71 HAY1       -12.5880     2.0900     0.8560 hc         1 OPC       0.040200
     72 HAY2       -13.5800     0.6410     1.0170 hc         1 OPC       0.040200
     73 HAX1       -13.0150     0.5380     3.4670 hc         1 OPC       0.042700
     74 HAX2       -12.0130     1.9720     3.2940 hc         1 OPC       0.042700
     75 HAW        -11.5050    -0.7100     1.8270 ha         1 OPC       0.165000
     76 HAV         -9.6240     1.3760     3.1110 ha         1 OPC       0.164000
     77 HAU1        -9.1300    -1.2990     1.6270 hc         1 OPC       0.044200
     78 HAU2        -8.2560    -0.8040     3.0680 hc         1 OPC       0.044200
     79 HAT1        -7.3250     1.1690     1.8600 hc         1 OPC       0.038700
     80 HAT2        -8.2440     0.7380     0.4170 hc         1 OPC       0.038700
     81 HAS1        -6.9830    -1.4090     0.2270 hc         1 OPC       0.040200
     82 HAS2        -6.0910    -1.0350     1.7010 hc         1 OPC       0.040200
     83 HAR1        -5.0860     0.9740     0.6040 hc         1 OPC       0.035700
     84 HAR2        -5.9940     0.6380    -0.8710 hc         1 OPC       0.035700
     85 HAQ1        -4.7940    -1.5340    -1.1440 hc         1 OPC       0.055200
     86 HAQ2        -3.9190    -1.2610     0.3620 hc         1 OPC       0.055200
     87 HAP1        -2.8220     0.7290    -0.5780 hc         1 OPC       0.068700
     88 HAP2        -3.7220     0.5240    -2.1300 hc         1 OPC       0.068700
     89 HAL1         1.6320    -2.2340    -2.3280 h1         1 OPC       0.054200
     90 HAL2         0.1640    -1.7630    -3.1740 h1         1 OPC       0.054200
     91 HAH1         4.1300     1.4260    -1.1180 h1         1 OPC       0.056700
     92 HAH2         3.0940     0.2930    -0.2270 h1         1 OPC       0.056700
     93 HAG1         5.3820     0.1520     0.5890 hx         1 OPC       0.080700
     94 HAG2         4.9120    -1.3720    -0.1630 hx         1 OPC       0.080700
     95 HAE1         6.8910     1.7600    -0.8250 hx         1 OPC       0.095589
     96 HAE2         7.7710     1.0570    -2.2090 hx         1 OPC       0.095589
     97 HAE3         6.0310     1.4160    -2.3520 hx         1 OPC       0.095589
     98 HBG1         7.4060    -1.8290     0.0790 hx         1 OPC       0.095589
     99 HBG2         8.5570    -0.8160    -0.8280 hx         1 OPC       0.095589
    100 HBG3         7.7110    -0.1480     0.5960 hx         1 OPC       0.095589
    101 HAA1         5.5970    -0.9350    -3.0490 hx         1 OPC       0.095589
    102 HAA2         7.3290    -1.3260    -2.8990 hx         1 OPC       0.095589
    103 HAA3         6.1150    -2.2920    -2.0140 hx         1 OPC       0.095589
    104 HAC1        -1.3120    -3.7190    -0.3100 hc         1 OPC       0.050700
    105 HAC2        -1.1240    -3.6610    -2.0760 hc         1 OPC       0.050700
    106 HAC3         0.2130    -4.2080    -1.0700 hc         1 OPC       0.050700
    107 HBI1         0.1370    -2.2030     1.1520 h1         1 OPC       0.067700
    108 HBI2         1.0150    -0.8270     0.4580 h1         1 OPC       0.067700
    109 HBL1         4.0750    -3.8260    -0.0100 hc         1 OPC       0.077200
    110 HBL2         3.6140    -4.8040     1.3720 hc         1 OPC       0.077200
    111 HBM1         5.0560    -3.5910     2.8990 hc         1 OPC       0.046200
    112 HBM2         5.3080    -2.2800     1.7530 hc         1 OPC       0.046200
    113 HBN1         6.5620    -3.8280     0.2340 hc         1 OPC       0.040700
    114 HBN2         6.3390    -5.1480     1.3800 hc         1 OPC       0.040700
    115 HBO1         7.6840    -3.9890     3.0880 hc         1 OPC       0.037200
    116 HBO2         7.7570    -2.5290     2.1110 hc         1 OPC       0.037200
    117 HBP1         9.0190    -3.8410     0.3290 hc         1 OPC       0.041700
    118 HBP2         9.0580    -5.2230     1.4210 hc         1 OPC       0.041700
    119 HBQ1        10.3720    -3.9290     3.0800 hc         1 OPC       0.043700
    120 HBQ2        10.1990    -2.4670     2.1310 hc         1 OPC       0.043700
    121 HBR         12.0740    -4.7940     1.6470 ha         1 OPC       0.169000
    122 HBS         13.0210    -3.5340    -0.2000 ha         1 OPC       0.168000
    123 HBT1        10.4090    -1.9740    -0.2980 hc         1 OPC       0.041200
    124 HBT2        11.7300    -1.9380    -1.4450 hc         1 OPC       0.041200
    125 HBU1        13.0950    -0.5610     0.1070 hc         1 OPC       0.042200
    126 HBU2        11.8660    -0.7060     1.3620 hc         1 OPC       0.042200
    127 HBV1        10.2230     0.5110    -0.0970 hc         1 OPC       0.034200
    128 HBV2        11.4550     0.6800    -1.3460 hc         1 OPC       0.034200
    129 HBW1        12.8550     2.0520     0.2080 hc         1 OPC       0.039200
    130 HBW2        11.6620     1.8380     1.4900 hc         1 OPC       0.039200
    131 HBX1         9.9450     3.0270     0.0900 hc         1 OPC       0.035700
    132 HBX2        11.1420     3.2550    -1.1840 hc         1 OPC       0.035700
    133 HBY1        12.5480     4.6300     0.3720 hc         1 OPC       0.038200
    134 HBY2        11.3700     4.3860     1.6620 hc         1 OPC       0.038200
    135 HBZ1         9.6240     5.5640     0.2920 hc         1 OPC       0.036200
    136 HBZ2        10.8010     5.8100    -0.9980 hc         1 OPC       0.036200
    137 HCA1        12.2150     7.1930     0.5540 hc         1 OPC       0.037200
    138 HCA2        11.0440     6.9420     1.8480 hc         1 OPC       0.037200
    139 HCB1        10.7170     9.1700     0.7820 hc         1 OPC       0.031367
    140 HCB2        10.4670     8.4020    -0.8000 hc         1 OPC       0.031367
    141 HCB3         9.2880     8.1500     0.5090 hc         1 OPC       0.031367
@<TRIPOS>BOND
     1     1     2 1   
     2     1    56 1   
     3     1    57 1   
     4     1    58 1   
     5     2     3 1   
     6     2    59 1   
     7     2    60 1   
     8     3     4 1   
     9     3    61 1   
    10     3    62 1   
    11     4     5 1   
    12     4    63 1   
    13     4    64 1   
    14     5     6 1   
    15     5    65 1   
    16     5    66 1   
    17     6     7 1   
    18     6    67 1   
    19     6    68 1   
    20     7     8 1   
    21     7    69 1   
    22     7    70 1   
    23     8     9 1   
    24     8    71 1   
    25     8    72 1   
    26     9    10 1   
    27     9    73 1   
    28     9    74 1   
    29    10    11 2   
    30    10    75 1   
    31    11    12 1   
    32    11    76 1   
    33    12    13 1   
    34    12    77 1   
    35    12    78 1   
    36    13    14 1   
    37    13    79 1   
    38    13    80 1   
    39    14    15 1   
    40    14    81 1   
    41    14    82 1   
    42    15    16 1   
    43    15    83 1   
    44    15    84 1   
    45    16    17 1   
    46    16    85 1   
    47    16    86 1   
    48    17    18 1   
    49    17    87 1   
    50    17    88 1   
    51    18    19 2   
    52    18    20 1   
    53    20    21 1   
    54    21    22 1   
    55    21    34 1   
    56    21    35 1   
    57    22    23 1   
    58    22    89 1   
    59    22    90 1   
    60    23    24 1   
    61    24    25 1   
    62    24    26 1   
    63    24    27 1   
    64    27    28 1   
    65    28    29 1   
    66    28    91 1   
    67    28    92 1   
    68    29    30 1   
    69    29    93 1   
    70    29    94 1   
    71    30    31 1   
    72    30    32 1   
    73    30    33 1   
    74    31    95 1   
    75    31    96 1   
    76    31    97 1   
    77    32    98 1   
    78    32    99 1   
    79    32   100 1   
    80    33   101 1   
    81    33   102 1   
    82    33   103 1   
    83    34   104 1   
    84    34   105 1   
    85    34   106 1   
    86    35    36 1   
    87    35   107 1   
    88    35   108 1   
    89    36    37 1   
    90    37    38 2   
    91    37    39 1   
    92    39    40 1   
    93    39   109 1   
    94    39   110 1   
    95    40    41 1   
    96    40   111 1   
    97    40   112 1   
    98    41    42 1   
    99    41   113 1   
   100    41   114 1   
   101    42    43 1   
   102    42   115 1   
   103    42   116 1   
   104    43    44 1   
   105    43   117 1   
   106    43   118 1   
   107    44    45 1   
   108    44   119 1   
   109    44   120 1   
   110    45    46 2   
   111    45   121 1   
   112    46    47 1   
   113    46   122 1   
   114    47    48 1   
   115    47   123 1   
   116    47   124 1   
   117    48    49 1   
   118    48   125 1   
   119    48   126 1   
   120    49    50 1   
   121    49   127 1   
   122    49   128 1   
   123    50    51 1   
   124    50   129 1   
   125    50   130 1   
   126    51    52 1   
   127    51   131 1   
   128    51   132 1   
   129    52    53 1   
   130    52   133 1   
   131    52   134 1   
   132    53    54 1   
   133    53   135 1   
   134    53   136 1   
   135    54    55 1   
   136    54   137 1   
   137    54   138 1   
   138    55   139 1   
   139    55   140 1   
   140    55   141 1   
@<TRIPOS>SUBSTRUCTURE
     1 OPC         1 TEMP              0 ****  ****    0 ROOT
