@<TRIPOS>MOLECULE
OPD
   48    48     1     0     0
SMALL
abcg2


@<TRIPOS>ATOM
      1 C8          -3.3970     1.2840    -1.4960 c2         1 OPD      -0.208200
      2 C7          -2.6750     0.5340    -0.6710 c2         1 OPD      -0.214200
      3 C5          -0.2700    -0.1480    -0.2820 c5         1 OPD      -0.166700
      4 C1           0.1720    -0.2960    -1.7320 c          1 OPD       0.569300
      5 O6          -0.5590    -0.3550    -2.6960 o          1 OPD      -0.518100
      6 C2           1.6370    -0.3830    -1.7460 ce         1 OPD      -0.326200
      7 C3           2.1090    -0.2310    -0.5070 c2         1 OPD      -0.145200
      8 C4           1.0450     0.0280     0.5180 c5         1 OPD      -0.042500
      9 C11          1.2460     1.3840     1.2060 c3         1 OPD      -0.066400
     10 C12          2.5580     1.4850     1.9770 c3         1 OPD      -0.077400
     11 C13          2.6500     2.7570     2.8120 c3         1 OPD      -0.076400
     12 C14          3.9270     2.8410     3.6380 c3         1 OPD      -0.075400
     13 C15          3.9940     4.0820     4.5190 c3         1 OPD      -0.079400
     14 C16          5.2460     4.1390     5.3870 c3         1 OPD      -0.054400
     15 C17          5.2840     5.3640     6.2870 c3         1 OPD      -0.204400
     16 C18          6.5120     5.4950     7.2050 c          1 OPD       0.717000
     17 O20          6.5840     6.5480     7.8750 o          1 OPD      -0.743500
     18 O19          7.3320     4.5560     7.2210 o          1 OPD      -0.743500
     19 C6          -1.3540     0.9170    -0.0830 c3         1 OPD      -0.019200
     20 C9          -4.7190     0.8910    -2.0750 c3         1 OPD      -0.038200
     21 C10         -4.6490     0.7280    -3.5920 c3         1 OPD      -0.086100
     22 H81         -3.0010     2.2460    -1.8170 ha         1 OPD       0.166000
     23 H71         -3.0670    -0.4340    -0.3620 ha         1 OPD       0.162000
     24 H51         -0.7000    -1.1170    -0.0010 hc         1 OPD       0.070700
     25 H21          2.2210    -0.5510    -2.6410 ha         1 OPD       0.207000
     26 H31          3.1590    -0.2710    -0.2450 ha         1 OPD       0.195000
     27 H41          1.1100    -0.7380     1.3000 hc         1 OPD       0.064700
     28 H111         1.1820     2.1910     0.4700 hc         1 OPD       0.044700
     29 H112         0.4250     1.5390     1.9120 hc         1 OPD       0.044700
     30 H121         3.4090     1.4430     1.2920 hc         1 OPD       0.036700
     31 H122         2.6530     0.6160     2.6380 hc         1 OPD       0.036700
     32 H131         1.7850     2.8090     3.4820 hc         1 OPD       0.034200
     33 H132         2.5790     3.6310     2.1560 hc         1 OPD       0.034200
     34 H141         4.0040     1.9480     4.2690 hc         1 OPD       0.034200
     35 H142         4.7980     2.8180     2.9730 hc         1 OPD       0.034200
     36 H151         3.9430     4.9790     3.8910 hc         1 OPD       0.024700
     37 H152         3.1060     4.1140     5.1610 hc         1 OPD       0.024700
     38 H161         6.1330     4.1230     4.7460 hc         1 OPD       0.038200
     39 H162         5.3000     3.2330     5.9970 hc         1 OPD       0.038200
     40 H171         4.3860     5.3780     6.9180 hc         1 OPD       0.014700
     41 H172         5.2120     6.2730     5.6790 hc         1 OPD       0.014700
     42 H61         -1.0280     1.8810    -0.4820 hc         1 OPD       0.051200
     43 H62         -1.4890     1.0570     0.9940 hc         1 OPD       0.051200
     44 H91         -5.0620    -0.0410    -1.6160 hc         1 OPD       0.037700
     45 H92         -5.4700     1.6500    -1.8340 hc         1 OPD       0.037700
     46 H101        -3.9320    -0.0460    -3.8670 hc         1 OPD       0.033700
     47 H102        -5.6200     0.4530    -4.0060 hc         1 OPD       0.033700
     48 H103        -4.3350     1.6550    -4.0740 hc         1 OPD       0.033700
@<TRIPOS>BOND
     1     1     2 2   
     2     1    20 1   
     3     1    22 1   
     4     2    19 1   
     5     2    23 1   
     6     3     4 1   
     7     3     8 1   
     8     3    19 1   
     9     3    24 1   
    10     4     5 2   
    11     4     6 1   
    12     6     7 2   
    13     6    25 1   
    14     7     8 1   
    15     7    26 1   
    16     8     9 1   
    17     8    27 1   
    18     9    10 1   
    19     9    28 1   
    20     9    29 1   
    21    10    11 1   
    22    10    30 1   
    23    10    31 1   
    24    11    12 1   
    25    11    32 1   
    26    11    33 1   
    27    12    13 1   
    28    12    34 1   
    29    12    35 1   
    30    13    14 1   
    31    13    36 1   
    32    13    37 1   
    33    14    15 1   
    34    14    38 1   
    35    14    39 1   
    36    15    16 1   
    37    15    40 1   
    38    15    41 1   
    39    16    17 1   
    40    16    18 1   
    41    19    42 1   
    42    19    43 1   
    43    20    21 1   
    44    20    44 1   
    45    20    45 1   
    46    21    46 1   
    47    21    47 1   
    48    21    48 1   
@<TRIPOS>SUBSTRUCTURE
     1 OPD         1 TEMP              0 ****  ****    0 ROOT
