@<TRIPOS>MOLECULE
OPD
   48    48     1     0     0
SMALL
No Charge or Current Charge


@<TRIPOS>ATOM
      1 C8          -3.5360     1.0040    -1.4070 c2         1 OPD      -0.208200
      2 C7          -2.7880     0.1400    -0.7030 c2         1 OPD      -0.214200
      3 C5          -0.2540    -0.0940    -0.4250 c5         1 OPD      -0.166700
      4 C1           0.2330     0.4900    -1.7650 c          1 OPD       0.569300
      5 O6          -0.3090     1.2310    -2.5740 o          1 OPD      -0.518100
      6 C2           1.6510     0.1010    -1.7630 ce         1 OPD      -0.326200
      7 C3           2.1450    -0.2020    -0.5470 c2         1 OPD      -0.145200
      8 C4           1.0300    -0.0130     0.4810 c5         1 OPD      -0.042500
      9 C11          1.1940     1.3150     1.2700 c3         1 OPD      -0.066400
     10 C12          2.4850     1.4000     2.1170 c3         1 OPD      -0.077400
     11 C13          2.5900     2.7110     2.9270 c3         1 OPD      -0.076400
     12 C14          3.8800     2.7970     3.7720 c3         1 OPD      -0.075400
     13 C15          3.9850     4.1080     4.5830 c3         1 OPD      -0.079400
     14 C16          5.2750     4.1950     5.4280 c3         1 OPD      -0.054400
     15 C17          5.3840     5.5070     6.2420 c3         1 OPD      -0.204400
     16 C18          6.6900     5.5220     7.0570 c          1 OPD       0.717000
     17 O20          7.6940     5.9750     6.5290 o          1 OPD      -0.743500
     18 O19          6.6770     5.0370     8.1780 o          1 OPD      -0.743500
     19 C6          -1.5730     0.5060     0.1240 c3         1 OPD      -0.019200
     20 C9          -4.7510     0.6370    -2.2320 c3         1 OPD      -0.038200
     21 C10         -4.5300     0.8930    -3.7340 c3         1 OPD      -0.086100
     22 H81         -3.2890     2.0670    -1.4190 ha         1 OPD       0.166000
     23 H71         -3.0360    -0.9230    -0.6910 ha         1 OPD       0.162000
     24 H51         -0.4140    -1.1640    -0.6020 hc         1 OPD       0.070700
     25 H21          2.2380     0.1710    -2.6770 ha         1 OPD       0.207000
     26 H31          3.1840    -0.4660    -0.3330 ha         1 OPD       0.195000
     27 H41          1.0360    -0.8270     1.2160 hc         1 OPD       0.064700
     28 H111         1.1710     2.1640     0.5750 hc         1 OPD       0.044700
     29 H112         0.3400     1.4450     1.9450 hc         1 OPD       0.044700
     30 H121         3.3590     1.3180     1.4600 hc         1 OPD       0.036700
     31 H122         2.5200     0.5470     2.8060 hc         1 OPD       0.036700
     32 H131         1.7200     2.7960     3.5900 hc         1 OPD       0.034200
     33 H132         2.5530     3.5640     2.2380 hc         1 OPD       0.034200
     34 H141         3.9170     1.9440     4.4610 hc         1 OPD       0.034200
     35 H142         4.7500     2.7130     3.1100 hc         1 OPD       0.034200
     36 H151         3.9480     4.9610     3.8930 hc         1 OPD       0.024700
     37 H152         3.1140     4.1920     5.2450 hc         1 OPD       0.024700
     38 H161         6.1460     4.1090     4.7660 hc         1 OPD       0.038200
     39 H162         5.3130     3.3400     6.1160 hc         1 OPD       0.038200
     40 H171         4.5140     5.5180     6.9110 hc         1 OPD       0.014700
     41 H172         5.3830     6.3190     5.5040 hc         1 OPD       0.014700
     42 H61         -1.4800     1.5980     0.1910 hc         1 OPD       0.051200
     43 H62         -1.7300     0.1550     1.1510 hc         1 OPD       0.051200
     44 H91         -5.0070    -0.4210    -2.0900 hc         1 OPD       0.037700
     45 H92         -5.6200     1.2150    -1.8950 hc         1 OPD       0.037700
     46 H101        -3.6850     0.3010    -4.1060 hc         1 OPD       0.033700
     47 H102        -5.4240     0.6150    -4.3060 hc         1 OPD       0.033700
     48 H103        -4.3200     1.9530    -3.9190 hc         1 OPD       0.033700
@<TRIPOS>BOND
     1     1     2 2   
     2     1    20 1   
     3     1    22 1   
     4     2    19 1   
     5     2    23 1   
     6     3     4 1   
     7     3     8 1   
     8     3    19 1   
     9     3    24 1   
    10     4     5 2   
    11     4     6 1   
    12     6     7 2   
    13     6    25 1   
    14     7     8 1   
    15     7    26 1   
    16     8     9 1   
    17     8    27 1   
    18     9    10 1   
    19     9    28 1   
    20     9    29 1   
    21    10    11 1   
    22    10    30 1   
    23    10    31 1   
    24    11    12 1   
    25    11    32 1   
    26    11    33 1   
    27    12    13 1   
    28    12    34 1   
    29    12    35 1   
    30    13    14 1   
    31    13    36 1   
    32    13    37 1   
    33    14    15 1   
    34    14    38 1   
    35    14    39 1   
    36    15    16 1   
    37    15    40 1   
    38    15    41 1   
    39    16    17 1   
    40    16    18 1   
    41    19    42 1   
    42    19    43 1   
    43    20    21 1   
    44    20    44 1   
    45    20    45 1   
    46    21    46 1   
    47    21    47 1   
    48    21    48 1   
@<TRIPOS>SUBSTRUCTURE
     1 OPD         1 TEMP              0 ****  ****    0 ROOT
