@<TRIPOS>MOLECULE
OPF
   56    57     1     0     0
SMALL
bcc


@<TRIPOS>ATOM
      1 O54         32.9410    28.8610     6.1440 o          1 OPF      -0.826800
      2 C55         33.0200    29.0040     4.9060 c          1 OPF       0.928600
      3 O53         34.0290    29.2700     4.2350 o          1 OPF      -0.826800
      4 C56         31.6880    28.8700     4.1270 c3         1 OPF      -0.037300
      5 C36         31.0240    30.2520     3.9510 c3         1 OPF      -0.035100
      6 C35         31.7690    31.1780     3.0360 ca         1 OPF      -0.029300
      7 C34         31.7240    30.9870     1.6560 ca         1 OPF      -0.112000
      8 C33         32.4070    31.8340     0.7940 ca         1 OPF      -0.137500
      9 C32         33.1470    32.8950     1.3020 ca         1 OPF      -0.150000
     10 C31         33.1960    33.0990     2.6740 ca         1 OPF      -0.137500
     11 C30         32.5120    32.2460     3.5310 ca         1 OPF      -0.112000
     12 N52         30.8080    27.9910     4.8600 ns         1 OPF      -0.516900
     13 C51         29.8080    27.2980     4.3180 c          1 OPF       0.655100
     14 O49         29.5050    27.3450     3.1300 o          1 OPF      -0.658100
     15 C50         28.9810    26.4300     5.2640 c5         1 OPF       0.025700
     16 C48         27.6450    27.1090     5.5990 c5         1 OPF      -0.082400
     17 C47         27.9570    27.8840     6.8740 c5         1 OPF      -0.097400
     18 C46         28.8680    26.9300     7.6380 c5         1 OPF       0.106000
     19 N45         29.5750    26.2190     6.5730 n          1 OPF      -0.491800
     20 C44         30.5820    25.3350     6.7470 c          1 OPF       0.676100
     21 O43         31.0990    24.7700     5.7920 o          1 OPF      -0.588100
     22 C42         31.0480    25.1220     8.1720 c3         1 OPF      -0.154400
     23 C41         31.8930    23.8720     8.3700 c3         1 OPF      -0.058400
     24 C40         31.1090    22.5750     8.2150 c3         1 OPF      -0.076400
     25 C39         31.9490    21.3360     8.4920 c3         1 OPF      -0.074400
     26 C38         31.1780    20.0350     8.3060 c3         1 OPF      -0.075400
     27 C37         32.0200    18.8010     8.5950 c3         1 OPF      -0.087100
     28 H2          31.8800    28.4420     3.1410 h1         1 OPF       0.067700
     29 H3          30.9040    30.7090     4.9360 hc         1 OPF       0.034700
     30 H4          30.0170    30.0930     3.5540 hc         1 OPF       0.034700
     31 H5          31.1430    30.1660     1.2510 ha         1 OPF       0.131000
     32 H6          32.3580    31.6700    -0.2750 ha         1 OPF       0.111000
     33 H7          33.6790    33.5600     0.6320 ha         1 OPF       0.107000
     34 H8          33.7670    33.9250     3.0800 ha         1 OPF       0.111000
     35 H9          32.5560    32.4130     4.6010 ha         1 OPF       0.131000
     36 H10         31.0270    27.9030     5.8420 hn         1 OPF       0.342500
     37 H11         28.8210    25.4780     4.7540 h1         1 OPF       0.085700
     38 H12         27.2770    27.7310     4.7850 hc         1 OPF       0.053200
     39 H13         26.8910    26.3440     5.7950 hc         1 OPF       0.053200
     40 H14         28.4860    28.8090     6.6390 hc         1 OPF       0.055200
     41 H15         27.0680    28.1450     7.4460 hc         1 OPF       0.055200
     42 H16         28.2830    26.2350     8.2470 h1         1 OPF       0.039200
     43 H17         29.5620    27.4530     8.2970 h1         1 OPF       0.039200
     44 H18         31.6190    26.0120     8.4620 hc         1 OPF       0.059700
     45 H19         30.1890    25.0970     8.8480 hc         1 OPF       0.059700
     46 H20         32.3180    23.9120     9.3770 hc         1 OPF       0.048700
     47 H21         32.7420    23.8800     7.6830 hc         1 OPF       0.048700
     48 H22         30.2500    22.5890     8.8950 hc         1 OPF       0.039700
     49 H23         30.6960    22.5090     7.2050 hc         1 OPF       0.039700
     50 H24         32.8240    21.3340     7.8320 hc         1 OPF       0.036700
     51 H25         32.3430    21.3810     9.5140 hc         1 OPF       0.036700
     52 H26         30.7960    19.9880     7.2820 hc         1 OPF       0.035200
     53 H27         30.2980    20.0400     8.9560 hc         1 OPF       0.035200
     54 H28         31.4500    17.8820     8.4530 hc         1 OPF       0.027367
     55 H29         32.8900    18.7550     7.9360 hc         1 OPF       0.027367
     56 H30         32.3880    18.8060     9.6230 hc         1 OPF       0.027367
@<TRIPOS>BOND
     1     1     2 1   
     2     2     3 1   
     3     2     4 1   
     4     4     5 1   
     5     4    12 1   
     6     4    28 1   
     7     5     6 1   
     8     5    29 1   
     9     5    30 1   
    10     6     7 ar  
    11     6    11 ar  
    12     7     8 ar  
    13     7    31 1   
    14     8     9 ar  
    15     8    32 1   
    16     9    10 ar  
    17     9    33 1   
    18    10    11 ar  
    19    10    34 1   
    20    11    35 1   
    21    12    13 1   
    22    12    36 1   
    23    13    14 2   
    24    13    15 1   
    25    15    16 1   
    26    15    19 1   
    27    15    37 1   
    28    16    17 1   
    29    16    38 1   
    30    16    39 1   
    31    17    18 1   
    32    17    40 1   
    33    17    41 1   
    34    18    19 1   
    35    18    42 1   
    36    18    43 1   
    37    19    20 1   
    38    20    21 2   
    39    20    22 1   
    40    22    23 1   
    41    22    44 1   
    42    22    45 1   
    43    23    24 1   
    44    23    46 1   
    45    23    47 1   
    46    24    25 1   
    47    24    48 1   
    48    24    49 1   
    49    25    26 1   
    50    25    50 1   
    51    25    51 1   
    52    26    27 1   
    53    26    52 1   
    54    26    53 1   
    55    27    54 1   
    56    27    55 1   
    57    27    56 1   
@<TRIPOS>SUBSTRUCTURE
     1 OPF         1 TEMP              0 ****  ****    0 ROOT
