@<TRIPOS>MOLECULE
OPF
   56    57     1     0     0
SMALL
No Charge or Current Charge


@<TRIPOS>ATOM
      1 O54         32.9430    28.8170     5.9400 o          1 OPF      -0.721500
      2 C55         32.9160    28.7310     4.7190 c          1 OPF       0.718000
      3 O53         33.8990    28.4560     4.0460 o          1 OPF      -0.721500
      4 C56         31.5310    28.7980     4.0070 c3         1 OPF      -0.037300
      5 C36         30.9790    30.2430     3.9540 c3         1 OPF      -0.035100
      6 C35         31.8440    31.1700     3.1090 ca         1 OPF      -0.029300
      7 C34         31.8030    31.0890     1.7030 ca         1 OPF      -0.094000
      8 C33         32.5990    31.9430     0.9200 ca         1 OPF      -0.119500
      9 C32         33.4420    32.8820     1.5380 ca         1 OPF      -0.132000
     10 C31         33.4880    32.9670     2.9390 ca         1 OPF      -0.119500
     11 C30         32.6910    32.1140     3.7230 ca         1 OPF      -0.094000
     12 N52         30.5770    27.8830     4.6730 ns         1 OPF      -0.449900
     13 C51         29.4340    27.3560     4.1100 c          1 OPF       0.588100
     14 O49         29.1150    27.5480     2.9420 o          1 OPF      -0.658100
     15 C50         28.6660    26.4760     5.1560 c5         1 OPF       0.025700
     16 C48         27.3690    27.2180     5.5990 c5         1 OPF      -0.082400
     17 C47         27.8700    28.0670     6.7950 c5         1 OPF      -0.097400
     18 C46         28.7280    27.0380     7.5760 c5         1 OPF       0.106000
     19 N45         29.3390    26.2590     6.4770 n          1 OPF      -0.424800
     20 C44         30.3490    25.2890     6.6600 c          1 OPF       0.609100
     21 O43         30.7530    24.6410     5.7030 o          1 OPF      -0.588100
     22 C42         30.9540    25.1210     8.0700 c3         1 OPF      -0.154400
     23 C41         31.9040    23.9160     8.2790 c3         1 OPF      -0.058400
     24 C40         31.1820    22.5480     8.2610 c3         1 OPF      -0.076400
     25 C39         32.1390    21.3580     8.4960 c3         1 OPF      -0.074400
     26 C38         31.4190    19.9920     8.4800 c3         1 OPF      -0.075400
     27 C37         32.3720    18.8050     8.7150 c3         1 OPF      -0.087100
     28 H2          31.6770    28.4410     2.9790 h1         1 OPF       0.067700
     29 H3          30.8790    30.6310     4.9750 hc         1 OPF       0.034700
     30 H4          29.9640    30.2260     3.5380 hc         1 OPF       0.034700
     31 H5          31.1520    30.3650     1.2180 ha         1 OPF       0.113000
     32 H6          32.5630    31.8760    -0.1650 ha         1 OPF       0.093000
     33 H7          34.0580    33.5420     0.9320 ha         1 OPF       0.089000
     34 H8          34.1400    33.6930     3.4190 ha         1 OPF       0.093000
     35 H9          32.7340    32.1850     4.8080 ha         1 OPF       0.113000
     36 H10         30.7410    27.6450     5.6450 hn         1 OPF       0.342500
     37 H11         28.4280    25.5240     4.6640 h1         1 OPF       0.085700
     38 H12         26.9250    27.8250     4.8010 hc         1 OPF       0.053200
     39 H13         26.6040    26.5030     5.9230 hc         1 OPF       0.053200
     40 H14         28.4760    28.9160     6.4590 hc         1 OPF       0.055200
     41 H15         27.0510    28.4710     7.4010 hc         1 OPF       0.055200
     42 H16         28.1030    26.3910     8.2060 h1         1 OPF       0.039200
     43 H17         29.4760    27.5320     8.2090 h1         1 OPF       0.039200
     44 H18         31.4630    26.0620     8.3080 hc         1 OPF       0.059700
     45 H19         30.1460    25.1240     8.8100 hc         1 OPF       0.059700
     46 H20         32.4070    24.0340     9.2470 hc         1 OPF       0.048700
     47 H21         32.6920    23.9310     7.5150 hc         1 OPF       0.048700
     48 H22         30.4050    22.5430     9.0350 hc         1 OPF       0.039700
     49 H23         30.6750    22.4130     7.2980 hc         1 OPF       0.039700
     50 H24         32.9170    21.3640     7.7230 hc         1 OPF       0.036700
     51 H25         32.6440    21.4880     9.4620 hc         1 OPF       0.036700
     52 H26         30.9140    19.8580     7.5160 hc         1 OPF       0.035200
     53 H27         30.6400    19.9820     9.2540 hc         1 OPF       0.035200
     54 H28         31.8170    17.8600     8.6950 hc         1 OPF       0.027367
     55 H29         33.1430    18.7670     7.9360 hc         1 OPF       0.027367
     56 H30         32.8670    18.8910     9.6900 hc         1 OPF       0.027367
@<TRIPOS>BOND
     1     1     2 1   
     2     2     3 1   
     3     2     4 1   
     4     4     5 1   
     5     4    12 1   
     6     4    28 1   
     7     5     6 1   
     8     5    29 1   
     9     5    30 1   
    10     6     7 ar  
    11     6    11 ar  
    12     7     8 ar  
    13     7    31 1   
    14     8     9 ar  
    15     8    32 1   
    16     9    10 ar  
    17     9    33 1   
    18    10    11 ar  
    19    10    34 1   
    20    11    35 1   
    21    12    13 1   
    22    12    36 1   
    23    13    14 2   
    24    13    15 1   
    25    15    16 1   
    26    15    19 1   
    27    15    37 1   
    28    16    17 1   
    29    16    38 1   
    30    16    39 1   
    31    17    18 1   
    32    17    40 1   
    33    17    41 1   
    34    18    19 1   
    35    18    42 1   
    36    18    43 1   
    37    19    20 1   
    38    20    21 2   
    39    20    22 1   
    40    22    23 1   
    41    22    44 1   
    42    22    45 1   
    43    23    24 1   
    44    23    46 1   
    45    23    47 1   
    46    24    25 1   
    47    24    48 1   
    48    24    49 1   
    49    25    26 1   
    50    25    50 1   
    51    25    51 1   
    52    26    27 1   
    53    26    52 1   
    54    26    53 1   
    55    27    54 1   
    56    27    55 1   
    57    27    56 1   
@<TRIPOS>SUBSTRUCTURE
     1 OPF         1 TEMP              0 ****  ****    0 ROOT
