@<TRIPOS>MOLECULE
OPH
   25    25     1     0     0
SMALL
No Charge or Current Charge


@<TRIPOS>ATOM
      1 CA          -0.4170    -0.4180     0.9700 c3         1 OPH       0.122300
      2 CB           0.0120     0.7840     0.0890 c3         1 OPH      -0.063100
      3 CG           0.1130     0.4370    -1.3940 ca         1 OPH      -0.079300
      4 CD1         -0.8760     0.8720    -2.2990 ca         1 OPH      -0.099500
      5 CD2          1.2040    -0.3160    -1.8710 ca         1 OPH      -0.099500
      6 CE1         -0.7760     0.5540    -3.6650 ca         1 OPH      -0.107500
      7 CE2          1.3040    -0.6340    -3.2370 ca         1 OPH      -0.107500
      8 CZ           0.3140    -0.1990    -4.1340 ca         1 OPH      -0.106000
      9 C           -0.3020    -0.0810     2.4870 c          1 OPH       0.552100
     10 CS           1.2610     0.2530     4.2960 c3         1 OPH       0.150900
     11 OP          -1.7550    -0.8440     0.6020 oh         1 OPH      -0.626000
     12 OS           1.0040    -0.0470     2.9110 os         1 OPH      -0.442100
     13 O           -1.2670     0.1190     3.2170 o          1 OPH      -0.481000
     14 HA           0.2960    -1.2350     0.7940 h1         1 OPH       0.102700
     15 HB1         -0.6890     1.6130     0.2460 hc         1 OPH       0.060700
     16 HB2          0.9860     1.1480     0.4370 hc         1 OPH       0.060700
     17 HD1         -1.7240     1.4530    -1.9450 ha         1 OPH       0.109000
     18 HD2          1.9760    -0.6550    -1.1840 ha         1 OPH       0.109000
     19 HE1         -1.5430     0.8900    -4.3590 ha         1 OPH       0.113000
     20 HE2          2.1480    -1.2160    -3.5990 ha         1 OPH       0.113000
     21 HZ           0.3910    -0.4450    -5.1910 ha         1 OPH       0.113000
     22 HS1          2.3400     0.2480     4.4940 h1         1 OPH       0.050033
     23 HS2          0.8710     1.2440     4.5610 h1         1 OPH       0.050033
     24 HS3          0.7910    -0.4920     4.9520 h1         1 OPH       0.050033
     25 HO          -2.3830    -0.3260     1.1550 ho         1 OPH       0.456000
@<TRIPOS>BOND
     1     1     2 1   
     2     1     9 1   
     3     1    11 1   
     4     1    14 1   
     5     2     3 1   
     6     2    15 1   
     7     2    16 1   
     8     3     4 ar  
     9     3     5 ar  
    10     4     6 ar  
    11     4    17 1   
    12     5     7 ar  
    13     5    18 1   
    14     6     8 ar  
    15     6    19 1   
    16     7     8 ar  
    17     7    20 1   
    18     8    21 1   
    19     9    12 1   
    20     9    13 2   
    21    10    12 1   
    22    10    22 1   
    23    10    23 1   
    24    10    24 1   
    25    11    25 1   
@<TRIPOS>SUBSTRUCTURE
     1 OPH         1 TEMP              0 ****  ****    0 ROOT
