@<TRIPOS>MOLECULE
OPH
   25    25     1     0     0
SMALL
bcc


@<TRIPOS>ATOM
      1 CA          -0.3200    -0.4660     0.9540 c3         1 OPH       0.099100
      2 CB           0.2060     0.7270     0.1350 c3         1 OPH      -0.063100
      3 CG           0.2030     0.4260    -1.3360 ca         1 OPH      -0.079300
      4 CD1         -0.8590     0.8170    -2.1450 ca         1 OPH      -0.117500
      5 CD2          1.2560    -0.2820    -1.9130 ca         1 OPH      -0.117500
      6 CE1         -0.8690     0.5160    -3.5010 ca         1 OPH      -0.125500
      7 CE2          1.2490    -0.5880    -3.2670 ca         1 OPH      -0.125500
      8 CZ           0.1850    -0.1890    -4.0660 ca         1 OPH      -0.124000
      9 C           -0.3030    -0.1140     2.4350 c          1 OPH       0.601100
     10 CS           1.0980     0.3130     4.2790 c3         1 OPH       0.127700
     11 OP          -1.5920    -0.8780     0.5580 oh         1 OPH      -0.563800
     12 OS           0.9290    -0.0620     2.9100 os         1 OPH      -0.418900
     13 O           -1.2920     0.1130     3.0830 o          1 OPH      -0.530000
     14 HA           0.3490    -1.3160     0.7950 h1         1 OPH       0.102700
     15 HB1         -0.4150     1.6050     0.3380 hc         1 OPH       0.060700
     16 HB2          1.2170     0.9700     0.4670 hc         1 OPH       0.060700
     17 HD1         -1.6850     1.3700    -1.7130 ha         1 OPH       0.127000
     18 HD2          2.0930    -0.5940    -1.2990 ha         1 OPH       0.127000
     19 HE1         -1.7010     0.8340    -4.1160 ha         1 OPH       0.131000
     20 HE2          2.0780    -1.1340    -3.6990 ha         1 OPH       0.131000
     21 HZ           0.1790    -0.4240    -5.1230 ha         1 OPH       0.131000
     22 HS1          2.1690     0.3040     4.4600 h1         1 OPH       0.050033
     23 HS2          0.7070     1.3120     4.4670 h1         1 OPH       0.050033
     24 HS3          0.6130    -0.3980     4.9460 h1         1 OPH       0.050033
     25 HO          -2.2150    -0.1540     0.6860 ho         1 OPH       0.417000
@<TRIPOS>BOND
     1     1     2 1   
     2     1     9 1   
     3     1    11 1   
     4     1    14 1   
     5     2     3 1   
     6     2    15 1   
     7     2    16 1   
     8     3     4 ar  
     9     3     5 ar  
    10     4     6 ar  
    11     4    17 1   
    12     5     7 ar  
    13     5    18 1   
    14     6     8 ar  
    15     6    19 1   
    16     7     8 ar  
    17     7    20 1   
    18     8    21 1   
    19     9    12 1   
    20     9    13 2   
    21    10    12 1   
    22    10    22 1   
    23    10    23 1   
    24    10    24 1   
    25    11    25 1   
@<TRIPOS>SUBSTRUCTURE
     1 OPH         1 TEMP              0 ****  ****    0 ROOT
