@<TRIPOS>MOLECULE
OPI
   54    53     1     0     0
SMALL
bcc


@<TRIPOS>ATOM
      1 OP1          7.3990     1.6410     1.9730 oh         1 OPI      -0.608800
      2 CP2          7.3270     2.0080     0.6120 c3         1 OPI       0.118400
      3 CP3          6.9240     0.7930    -0.1930 c3         1 OPI       0.101000
      4 NP4          5.6310     0.3020     0.2300 ns         1 OPI      -0.569900
      5 CP5          4.8080    -0.4010    -0.5620 c          1 OPI       0.669100
      6 OP5          5.0390    -0.6210    -1.7430 o          1 OPI      -0.599100
      7 CP6          3.5660    -0.9320     0.1240 c3         1 OPI      -0.182400
      8 CP7          2.3930    -1.0410    -0.8350 c3         1 OPI       0.115000
      9 NP8          1.2460    -1.5890    -0.1380 ns         1 OPI      -0.566900
     10 CP9          0.0760    -1.8150    -0.7360 c          1 OPI       0.629100
     11 OP9         -0.1150    -1.6300    -1.9330 o          1 OPI      -0.606100
     12 CPA         -1.0540    -2.3450     0.1470 c3         1 OPI       0.078100
     13 OPA         -1.7860    -3.2890    -0.5870 oh         1 OPI      -0.583800
     14 CPB         -1.9530    -1.2200     0.7360 c3         1 OPI      -0.067000
     15 CPD         -1.1060    -0.2540     1.5670 c3         1 OPI      -0.082600
     16 CPE         -2.9830    -1.8930     1.6500 c3         1 OPI      -0.082600
     17 CPC         -2.6510    -0.4760    -0.4030 c3         1 OPI       0.145400
     18 OA6         -3.5370     0.4810     0.1780 os         1 OPI      -0.428900
     19 CT1         -4.2600     1.2480    -0.6260 c          1 OPI       0.644100
     20 OT1         -4.2060     1.1730    -1.8290 o          1 OPI      -0.532000
     21 CT2         -5.1420     2.2090     0.1560 c3         1 OPI      -0.098000
     22 CT3         -5.9610     3.0560    -0.8140 c3         1 OPI      -0.081433
     23 CT4         -4.2540     3.1220     1.0130 c3         1 OPI      -0.081433
     24 CT5         -6.0860     1.4060     1.0610 c3         1 OPI      -0.081433
     25 HP1          7.5240     2.4370     2.4970 ho         1 OPI       0.410000
     26 HP21         8.2920     2.3640     0.2330 h1         1 OPI       0.031700
     27 HP22         6.5960     2.8090     0.4480 h1         1 OPI       0.031700
     28 HP31         7.6860     0.0130    -0.1000 h1         1 OPI       0.062700
     29 HP32         6.8780     1.0740    -1.2450 h1         1 OPI       0.062700
     30 HP4          5.4070     0.3820     1.2090 hn         1 OPI       0.322500
     31 HP61         3.3000    -0.3070     0.9800 hc         1 OPI       0.060200
     32 HP62         3.8090    -1.9220     0.5250 hc         1 OPI       0.060200
     33 HP71         2.6550    -1.6810    -1.6780 h1         1 OPI       0.072200
     34 HP72         2.1420    -0.0570    -1.2380 h1         1 OPI       0.072200
     35 HP8          1.3390    -1.8130     0.8410 hn         1 OPI       0.314500
     36 HPA         -0.6190    -2.8710     1.0050 h1         1 OPI       0.069700
     37 HPA0        -1.7970    -3.0000    -1.5090 ho         1 OPI       0.432000
     38 HPD1        -1.7460     0.4280     2.1280 hc         1 OPI       0.040200
     39 HPD2        -0.4990    -0.7920     2.2990 hc         1 OPI       0.040200
     40 HPD3        -0.4380     0.3520     0.9550 hc         1 OPI       0.040200
     41 HPE1        -3.6620    -2.5420     1.0970 hc         1 OPI       0.040200
     42 HPE2        -2.4790    -2.5030     2.4030 hc         1 OPI       0.040200
     43 HPE3        -3.5830    -1.1560     2.1820 hc         1 OPI       0.040200
     44 HPC1        -3.2220    -1.1690    -1.0260 h1         1 OPI       0.060700
     45 HPC2        -1.9310     0.0410    -1.0400 h1         1 OPI       0.060700
     46 HT31        -5.3260     3.6580    -1.4640 hc         1 OPI       0.042811
     47 HT32        -6.6070     2.4440    -1.4440 hc         1 OPI       0.042811
     48 HT33        -6.6000     3.7390    -0.2510 hc         1 OPI       0.042811
     49 HT41        -4.8830     3.8220     1.5650 hc         1 OPI       0.042811
     50 HT42        -3.6650     2.5600     1.7370 hc         1 OPI       0.042811
     51 HT43        -3.5700     3.7070     0.3960 hc         1 OPI       0.042811
     52 HT51        -6.7240     0.7380     0.4800 hc         1 OPI       0.042811
     53 HT52        -5.5460     0.8090     1.7950 hc         1 OPI       0.042811
     54 HT53        -6.7360     2.0940     1.6050 hc         1 OPI       0.042811
@<TRIPOS>BOND
     1     1     2 1   
     2     1    25 1   
     3     2     3 1   
     4     2    26 1   
     5     2    27 1   
     6     3     4 1   
     7     3    28 1   
     8     3    29 1   
     9     4     5 1   
    10     4    30 1   
    11     5     6 2   
    12     5     7 1   
    13     7     8 1   
    14     7    31 1   
    15     7    32 1   
    16     8     9 1   
    17     8    33 1   
    18     8    34 1   
    19     9    10 1   
    20     9    35 1   
    21    10    11 2   
    22    10    12 1   
    23    12    13 1   
    24    12    14 1   
    25    12    36 1   
    26    13    37 1   
    27    14    15 1   
    28    14    16 1   
    29    14    17 1   
    30    15    38 1   
    31    15    39 1   
    32    15    40 1   
    33    16    41 1   
    34    16    42 1   
    35    16    43 1   
    36    17    18 1   
    37    17    44 1   
    38    17    45 1   
    39    18    19 1   
    40    19    20 2   
    41    19    21 1   
    42    21    22 1   
    43    21    23 1   
    44    21    24 1   
    45    22    46 1   
    46    22    47 1   
    47    22    48 1   
    48    23    49 1   
    49    23    50 1   
    50    23    51 1   
    51    24    52 1   
    52    24    53 1   
    53    24    54 1   
@<TRIPOS>SUBSTRUCTURE
     1 OPI         1 TEMP              0 ****  ****    0 ROOT
