@<TRIPOS>MOLECULE
OPI
   54    53     1     0     0
SMALL
No Charge or Current Charge


@<TRIPOS>ATOM
      1 OP1          5.3060     2.9620    -1.6770 oh         1 OPI      -0.671000
      2 CP2          6.3400     2.0610    -1.2420 c3         1 OPI       0.141600
      3 CP3          6.0370     1.5260     0.1770 c3         1 OPI       0.101000
      4 NP4          4.7040     0.9150     0.2690 ns         1 OPI      -0.502900
      5 CP5          4.3920    -0.1960     1.0150 c          1 OPI       0.602100
      6 OP5          5.2140    -0.7660     1.7170 o          1 OPI      -0.599100
      7 CP6          2.9340    -0.6420     0.9340 c3         1 OPI      -0.182400
      8 CP7          2.8130    -1.9390     0.1140 c3         1 OPI       0.115000
      9 NP8          1.4220    -2.3910     0.0230 ns         1 OPI      -0.499900
     10 CP9          0.4750    -1.8450    -0.8210 c          1 OPI       0.562100
     11 OP9          0.7620    -0.9820    -1.6410 o          1 OPI      -0.606100
     12 CPA         -0.9610    -2.4580    -0.7230 c3         1 OPI       0.101300
     13 OPA         -1.5180    -2.6700    -2.0460 oh         1 OPI      -0.646000
     14 CPB         -1.9500    -1.6120     0.1620 c3         1 OPI      -0.067000
     15 CPD         -1.3440    -1.4270     1.5870 c3         1 OPI      -0.082600
     16 CPE         -3.2970    -2.3830     0.3080 c3         1 OPI      -0.082600
     17 CPC         -2.2060    -0.2110    -0.4820 c3         1 OPI       0.168600
     18 OA6         -3.1140     0.5310     0.3530 os         1 OPI      -0.452100
     19 CT1         -3.4700     1.7970    -0.0370 c          1 OPI       0.595100
     20 OT1         -3.0560     2.3340    -1.0570 o          1 OPI      -0.483000
     21 CT2         -4.4560     2.4620     0.9710 c3         1 OPI      -0.098000
     22 CT3         -4.8340     3.8950     0.4980 c3         1 OPI      -0.081433
     23 CT4         -3.7820     2.5510     2.3680 c3         1 OPI      -0.081433
     24 CT5         -5.7470     1.6030     1.0710 c3         1 OPI      -0.081433
     25 HP1          5.5580     3.2780    -2.5740 ho         1 OPI       0.449000
     26 HP21         7.3140     2.5690    -1.2310 h1         1 OPI       0.031700
     27 HP22         6.4150     1.2110    -1.9330 h1         1 OPI       0.031700
     28 HP31         6.0970     2.3520     0.8980 h1         1 OPI       0.062700
     29 HP32         6.8050     0.7870     0.4460 h1         1 OPI       0.062700
     30 HP4          3.9590     1.3280    -0.2800 hn         1 OPI       0.322500
     31 HP61         2.3260     0.1360     0.4580 hc         1 OPI       0.060200
     32 HP62         2.5650    -0.8360     1.9480 hc         1 OPI       0.060200
     33 HP71         3.4110    -2.7320     0.5850 h1         1 OPI       0.072200
     34 HP72         3.2070    -1.7780    -0.8990 h1         1 OPI       0.072200
     35 HP8          1.1140    -3.1270     0.6490 hn         1 OPI       0.314500
     36 HPA         -0.8410    -3.4350    -0.2350 h1         1 OPI       0.069700
     37 HPA0        -1.0500    -2.0510    -2.6540 ho         1 OPI       0.471000
     38 HPD1        -2.0600    -0.9450     2.2640 hc         1 OPI       0.040200
     39 HPD2        -1.0740    -2.3940     2.0270 hc         1 OPI       0.040200
     40 HPD3        -0.4450    -0.8000     1.5620 hc         1 OPI       0.040200
     41 HPE1        -3.8110    -2.4720    -0.6570 hc         1 OPI       0.040200
     42 HPE2        -3.1290    -3.3940     0.6970 hc         1 OPI       0.040200
     43 HPE3        -3.9780    -1.8710     0.9990 hc         1 OPI       0.040200
     44 HPC1        -2.6320    -0.3360    -1.4870 h1         1 OPI       0.060700
     45 HPC2        -1.2570     0.3330    -0.5820 h1         1 OPI       0.060700
     46 HT31        -3.9440     4.5310     0.4220 hc         1 OPI       0.042811
     47 HT32        -5.3180     3.8680    -0.4860 hc         1 OPI       0.042811
     48 HT33        -5.5290     4.3700     1.2010 hc         1 OPI       0.042811
     49 HT41        -4.4420     3.0440     3.0920 hc         1 OPI       0.042811
     50 HT42        -3.5430     1.5540     2.7600 hc         1 OPI       0.042811
     51 HT43        -2.8490     3.1250     2.3140 hc         1 OPI       0.042811
     52 HT51        -6.2220     1.4990     0.0870 hc         1 OPI       0.042811
     53 HT52        -5.5290     0.5960     1.4480 hc         1 OPI       0.042811
     54 HT53        -6.4740     2.0650     1.7510 hc         1 OPI       0.042811
@<TRIPOS>BOND
     1     1     2 1   
     2     1    25 1   
     3     2     3 1   
     4     2    26 1   
     5     2    27 1   
     6     3     4 1   
     7     3    28 1   
     8     3    29 1   
     9     4     5 1   
    10     4    30 1   
    11     5     6 2   
    12     5     7 1   
    13     7     8 1   
    14     7    31 1   
    15     7    32 1   
    16     8     9 1   
    17     8    33 1   
    18     8    34 1   
    19     9    10 1   
    20     9    35 1   
    21    10    11 2   
    22    10    12 1   
    23    12    13 1   
    24    12    14 1   
    25    12    36 1   
    26    13    37 1   
    27    14    15 1   
    28    14    16 1   
    29    14    17 1   
    30    15    38 1   
    31    15    39 1   
    32    15    40 1   
    33    16    41 1   
    34    16    42 1   
    35    16    43 1   
    36    17    18 1   
    37    17    44 1   
    38    17    45 1   
    39    18    19 1   
    40    19    20 2   
    41    19    21 1   
    42    21    22 1   
    43    21    23 1   
    44    21    24 1   
    45    22    46 1   
    46    22    47 1   
    47    22    48 1   
    48    23    49 1   
    49    23    50 1   
    50    23    51 1   
    51    24    52 1   
    52    24    53 1   
    53    24    54 1   
@<TRIPOS>SUBSTRUCTURE
     1 OPI         1 TEMP              0 ****  ****    0 ROOT
