@<TRIPOS>MOLECULE
OPJ
   87    91     1     0     0
SMALL
bcc


@<TRIPOS>ATOM
      1 C13         74.1050    54.8780    14.9460 ca         1 OPJ      -0.084300
      2 C15         74.2900    52.4680    14.9350 ca         1 OPJ      -0.121500
      3 C17         75.2710    53.7300    16.7260 ca         1 OPJ      -0.121500
      4 C22         75.3660    60.1360    18.7330 c5         1 OPJ       0.137100
      5 C24         70.0500    60.6700    19.7670 ca         1 OPJ      -0.120000
      6 C26         70.1550    58.2790    19.8200 ca         1 OPJ      -0.120000
      7 C28         70.1470    52.8430    14.0380 c          1 OPJ       0.747100
      8 C02         71.0970    58.8860    16.8880 c3         1 OPJ       0.120700
      9 C03         70.8650    58.7380    15.3870 c3         1 OPJ      -0.122400
     10 C04         69.8380    59.4020    17.5950 c3         1 OPJ      -0.044100
     11 C05         72.0310    58.1200    14.6190 c3         1 OPJ       0.132100
     12 C06         72.3620    56.6900    15.0590 c3         1 OPJ       0.114700
     13 C08         70.4710    55.3120    15.8550 c          1 OPJ       0.677100
     14 C09         69.1700    54.6470    15.3890 c5         1 OPJ       0.063400
     15 C11         73.6050    56.1550    14.3360 c3         1 OPJ      -0.033100
     16 C14         73.8440    53.6480    14.3540 ca         1 OPJ      -0.114500
     17 C16         75.0080    52.5050    16.1220 ca         1 OPJ      -0.126000
     18 C18         74.8200    54.9040    16.1420 ca         1 OPJ      -0.114500
     19 C23         70.0120    59.4570    19.0870 ca         1 OPJ      -0.088300
     20 C25         70.2150    60.7090    21.1470 ca         1 OPJ      -0.130000
     21 C31         70.9370    51.2140    12.5400 c3         1 OPJ       0.147700
     22 C32         76.3760    61.1900    18.3190 c5         1 OPJ       0.130400
     23 C34         75.7220    61.8750    20.3970 c5         1 OPJ       0.324900
     24 C35         75.2160    60.4190    20.2360 c5         1 OPJ      -0.147700
     25 C37         73.4520    61.9570    20.6840 c5         1 OPJ       0.128400
     26 C38         73.8040    60.4840    20.8200 c5         1 OPJ      -0.098400
     27 C39         68.4800    53.7920    16.4550 c5         1 OPJ      -0.087400
     28 C40         67.0450    53.6650    15.9400 c5         1 OPJ      -0.080900
     29 C41         66.7590    54.9920    15.2050 c5         1 OPJ      -0.080900
     30 C42         68.1060    55.7340    15.1510 c5         1 OPJ      -0.087400
     31 C43         70.3300    58.3130    21.1950 ca         1 OPJ      -0.130000
     32 C44         70.3570    59.5310    21.8650 ca         1 OPJ      -0.130000
     33 N01         72.2200    59.7530    17.1740 ns         1 OPJ      -0.568900
     34 N07         71.2290    55.8130    14.8670 ns         1 OPJ      -0.553900
     35 N27         69.3510    53.9290    14.1410 ns         1 OPJ      -0.579900
     36 O10         71.7500    58.0680    13.2350 oh         1 OPJ      -0.604800
     37 O12         70.7190    55.4520    17.0430 o          1 OPJ      -0.599100
     38 O20         73.6000    58.1940    18.0970 o          1 OPJ      -0.586000
     39 O21         74.1620    60.3780    18.0100 os         1 OPJ      -0.430900
     40 O29         70.1360    52.3640    12.7910 os         1 OPJ      -0.439900
     41 O30         70.7980    52.3710    14.9430 o          1 OPJ      -0.567000
     42 O33         76.0780    62.3220    19.1080 os         1 OPJ      -0.413600
     43 O36         74.6830    62.6380    20.9070 os         1 OPJ      -0.393600
     44 H151        74.0730    51.5190    14.4620 ha         1 OPJ       0.126500
     45 H171        75.8310    53.7680    17.6520 ha         1 OPJ       0.126500
     46 H221        75.7280    59.1290    18.5350 h1         1 OPJ       0.086700
     47 H241        69.9400    61.5960    19.2140 ha         1 OPJ       0.137000
     48 H261        70.1280    57.3240    19.3050 ha         1 OPJ       0.137000
     49 H021        71.3300    57.9120    17.3160 h1         1 OPJ       0.110700
     50 H032        70.6560    59.7270    14.9630 hc         1 OPJ       0.048200
     51 H031        69.9650    58.1400    15.2250 hc         1 OPJ       0.048200
     52 H042        69.5720    60.3890    17.2050 hc         1 OPJ       0.051200
     53 H041        69.0100    58.7340    17.3410 hc         1 OPJ       0.051200
     54 H051        72.9290    58.7260    14.8040 h1         1 OPJ       0.044700
     55 H061        72.5860    56.7050    16.1250 h1         1 OPJ       0.106700
     56 H112        74.3820    56.9210    14.3970 hc         1 OPJ       0.054200
     57 H111        73.3910    56.0090    13.2750 hc         1 OPJ       0.054200
     58 H141        73.2850    53.6120    13.4260 ha         1 OPJ       0.126500
     59 H161        75.3580    51.5870    16.5760 ha         1 OPJ       0.126000
     60 H181        75.0210    55.8550    16.6230 ha         1 OPJ       0.126500
     61 H251        70.2330    61.6620    21.6600 ha         1 OPJ       0.132500
     62 H312        70.8240    50.9970    11.4820 h1         1 OPJ       0.048033
     63 H311        71.9900    51.3980    12.7570 h1         1 OPJ       0.048033
     64 H313        70.6000    50.3540    13.1190 h1         1 OPJ       0.048033
     65 H321        77.3870    60.8160    18.5210 h1         1 OPJ       0.060700
     66 H341        76.5790    61.9740    21.0730 h2         1 OPJ       0.079700
     67 H351        75.8470    59.7210    20.7850 hc         1 OPJ       0.077700
     68 H372        72.7340    62.3030    21.4280 h1         1 OPJ       0.053700
     69 H371        73.0490    62.1840    19.6920 h1         1 OPJ       0.053700
     70 H382        73.8380    60.2050    21.8740 hc         1 OPJ       0.066700
     71 H381        73.0720    59.8320    20.3460 hc         1 OPJ       0.066700
     72 H392        68.9670    52.8340    16.6300 hc         1 OPJ       0.065700
     73 H391        68.4900    54.3400    17.3980 hc         1 OPJ       0.065700
     74 H401        66.3420    53.4790    16.7520 hc         1 OPJ       0.045450
     75 H402        66.9620    52.8230    15.2510 hc         1 OPJ       0.045450
     76 H411        66.0150    55.5930    15.7280 hc         1 OPJ       0.045450
     77 H412        66.3650    54.8120    14.2040 hc         1 OPJ       0.045450
     78 H422        68.1720    56.4590    15.9660 hc         1 OPJ       0.065700
     79 H421        68.2680    56.2850    14.2220 hc         1 OPJ       0.065700
     80 H431        70.4400    57.3890    21.7470 ha         1 OPJ       0.132500
     81 H441        70.4880    59.5590    22.9390 ha         1 OPJ       0.130000
     82 H011        72.1180    60.7380    16.9800 hn         1 OPJ       0.323500
     83 H071        70.9320    55.6530    13.9170 hn         1 OPJ       0.321500
     84 H271        68.8280    54.2210    13.3290 hn         1 OPJ       0.330500
     85 H101        71.5270    58.9540    12.9330 ho         1 OPJ       0.404000
     86 C19         73.3410    59.3390    17.7890 c          1 OPJ       0.755100
     87 H322        76.3180    61.4580    17.2640 h1         1 OPJ       0.060700
@<TRIPOS>BOND
     1     1    15 1   
     2     1    16 ar  
     3     1    18 ar  
     4     2    16 ar  
     5     2    17 ar  
     6     2    44 1   
     7     3    17 ar  
     8     3    18 ar  
     9     3    45 1   
    10     4    22 1   
    11     4    24 1   
    12     4    39 1   
    13     4    46 1   
    14     5    19 ar  
    15     5    20 ar  
    16     5    47 1   
    17     6    19 ar  
    18     6    31 ar  
    19     6    48 1   
    20     7    35 1   
    21     7    40 1   
    22     7    41 2   
    23     8     9 1   
    24     8    10 1   
    25     8    33 1   
    26     8    49 1   
    27     9    11 1   
    28     9    50 1   
    29     9    51 1   
    30    10    19 1   
    31    10    52 1   
    32    10    53 1   
    33    11    12 1   
    34    11    36 1   
    35    11    54 1   
    36    12    15 1   
    37    12    34 1   
    38    12    55 1   
    39    13    14 1   
    40    13    34 1   
    41    13    37 2   
    42    14    27 1   
    43    14    30 1   
    44    14    35 1   
    45    15    56 1   
    46    15    57 1   
    47    16    58 1   
    48    17    59 1   
    49    18    60 1   
    50    20    32 ar  
    51    20    61 1   
    52    21    40 1   
    53    21    62 1   
    54    21    63 1   
    55    21    64 1   
    56    22    42 1   
    57    22    65 1   
    58    22    87 1   
    59    23    24 1   
    60    23    42 1   
    61    23    43 1   
    62    23    66 1   
    63    24    26 1   
    64    24    67 1   
    65    25    26 1   
    66    25    43 1   
    67    25    68 1   
    68    25    69 1   
    69    26    70 1   
    70    26    71 1   
    71    27    28 1   
    72    27    72 1   
    73    27    73 1   
    74    28    29 1   
    75    28    74 1   
    76    28    75 1   
    77    29    30 1   
    78    29    76 1   
    79    29    77 1   
    80    30    78 1   
    81    30    79 1   
    82    31    32 ar  
    83    31    80 1   
    84    32    81 1   
    85    33    82 1   
    86    33    86 1   
    87    34    83 1   
    88    35    84 1   
    89    36    85 1   
    90    38    86 2   
    91    39    86 1   
@<TRIPOS>SUBSTRUCTURE
     1 OPJ         1 TEMP              0 ****  ****    0 ROOT
