@<TRIPOS>MOLECULE
OPJ
   87    91     1     0     0
SMALL
No Charge or Current Charge


@<TRIPOS>ATOM
      1 C13         73.9340    54.7050    15.0890 ca         1 OPJ      -0.084300
      2 C15         74.4710    52.3660    14.6320 ca         1 OPJ      -0.103500
      3 C17         74.5470    53.2020    16.9140 ca         1 OPJ      -0.103500
      4 C22         75.4680    60.1750    18.6200 c5         1 OPJ       0.160300
      5 C24         70.0340    61.1470    19.7920 ca         1 OPJ      -0.102000
      6 C26         70.3060    58.7520    20.1260 ca         1 OPJ      -0.102000
      7 C28         70.2950    52.9610    13.8620 c          1 OPJ       0.631100
      8 C02         71.0120    58.9970    17.0460 c3         1 OPJ       0.120700
      9 C03         70.7500    58.7810    15.5350 c3         1 OPJ      -0.122400
     10 C04         69.7920    59.6010    17.7790 c3         1 OPJ      -0.044100
     11 C05         71.9100    58.0980    14.7610 c3         1 OPJ       0.155300
     12 C06         72.2430    56.6470    15.2430 c3         1 OPJ       0.114700
     13 C08         70.2080    55.3430    15.9980 c          1 OPJ       0.610100
     14 C09         69.0330    54.4900    15.3670 c5         1 OPJ       0.063400
     15 C11         73.5340    56.0910    14.5890 c3         1 OPJ      -0.033100
     16 C14         74.0930    53.6410    14.1770 ca         1 OPJ      -0.096500
     17 C16         74.6960    52.1450    16.0010 ca         1 OPJ      -0.108000
     18 C18         74.1710    54.4780    16.4600 ca         1 OPJ      -0.096500
     19 C23         70.0480    59.8390    19.2660 ca         1 OPJ      -0.088300
     20 C25         70.2750    61.3640    21.1600 ca         1 OPJ      -0.112000
     21 C31         71.2660    51.5770    12.1640 c3         1 OPJ       0.170900
     22 C32         76.4580    61.2930    18.1940 c5         1 OPJ       0.153600
     23 C34         76.0210    61.8020    20.4050 c5         1 OPJ       0.371300
     24 C35         75.4220    60.3710    20.1920 c5         1 OPJ      -0.147700
     25 C37         73.7350    62.0260    20.6930 c5         1 OPJ       0.151600
     26 C38         73.9730    60.5030    20.7900 c5         1 OPJ      -0.098400
     27 C39         68.4720    53.3690    16.2980 c5         1 OPJ      -0.087400
     28 C40         67.1340    52.9900    15.6030 c5         1 OPJ      -0.080900
     29 C41         66.5920    54.3420    15.0320 c5         1 OPJ      -0.080900
     30 C42         67.7630    55.3690    15.1810 c5         1 OPJ      -0.087400
     31 C43         70.5510    58.9710    21.4920 ca         1 OPJ      -0.112000
     32 C44         70.5360    60.2760    22.0100 ca         1 OPJ      -0.112000
     33 N01         72.1990    59.8280    17.2610 ns         1 OPJ      -0.501900
     34 N07         71.1100    55.7330    15.0300 ns         1 OPJ      -0.486900
     35 N27         69.3460    53.9450    14.0090 ns         1 OPJ      -0.512900
     36 O10         71.5620    58.0820    13.3660 oh         1 OPJ      -0.667000
     37 O12         70.3550    55.6100    17.1840 o          1 OPJ      -0.599100
     38 O20         73.6290    58.2240    18.0650 o          1 OPJ      -0.537000
     39 O21         74.1950    60.4650    17.9710 os         1 OPJ      -0.454100
     40 O29         70.3260    52.5950    12.5510 os         1 OPJ      -0.463100
     41 O30         71.0020    52.5020    14.7430 o          1 OPJ      -0.518000
     42 O33         76.1660    62.3750    19.0950 os         1 OPJ      -0.460000
     43 O36         75.0100    62.5510    21.1040 os         1 OPJ      -0.440000
     44 H151        74.5870    51.5490    13.9230 ha         1 OPJ       0.108500
     45 H171        74.7260    53.0330    17.9740 ha         1 OPJ       0.108500
     46 H221        75.8500    59.1910    18.3130 h1         1 OPJ       0.086700
     47 H241        69.8380    61.9970    19.1430 ha         1 OPJ       0.119000
     48 H261        70.3170    57.7370    19.7350 ha         1 OPJ       0.119000
     49 H021        71.1920    58.0170    17.5050 h1         1 OPJ       0.110700
     50 H032        70.5480    59.7580    15.0780 hc         1 OPJ       0.048200
     51 H031        69.8340    58.1900    15.4110 hc         1 OPJ       0.048200
     52 H042        69.5070    60.5380    17.2860 hc         1 OPJ       0.051200
     53 H041        68.9370    58.9240    17.6610 hc         1 OPJ       0.051200
     54 H051        72.8120    58.7100    14.8990 h1         1 OPJ       0.044700
     55 H061        72.4430    56.6980    16.3200 h1         1 OPJ       0.106700
     56 H112        74.3550    56.7920    14.7860 hc         1 OPJ       0.054200
     57 H111        73.4050    56.0780    13.5010 hc         1 OPJ       0.054200
     58 H141        73.9210    53.8000    13.1150 ha         1 OPJ       0.108500
     59 H161        74.9870    51.1580    16.3520 ha         1 OPJ       0.108000
     60 H181        74.0680    55.2890    17.1770 ha         1 OPJ       0.108500
     61 H251        70.2610    62.3750    21.5600 ha         1 OPJ       0.114500
     62 H312        71.1880    51.3750    11.0880 h1         1 OPJ       0.048033
     63 H311        72.2950    51.8930    12.3770 h1         1 OPJ       0.048033
     64 H313        71.0720    50.6400    12.7020 h1         1 OPJ       0.048033
     65 H321        77.5020    60.9790    18.3320 h1         1 OPJ       0.060700
     66 H341        76.9780    61.7930    20.9450 h2         1 OPJ       0.079700
     67 H351        76.0140    59.6060    20.7060 hc         1 OPJ       0.077700
     68 H372        72.9440    62.3820    21.3650 h1         1 OPJ       0.053700
     69 H371        73.5110    62.3550    19.6680 h1         1 OPJ       0.053700
     70 H382        73.9630    60.1940    21.8410 hc         1 OPJ       0.066700
     71 H381        73.1990    59.9090    20.2980 hc         1 OPJ       0.066700
     72 H392        69.1370    52.5090    16.4260 hc         1 OPJ       0.065700
     73 H391        68.2810    53.7590    17.3050 hc         1 OPJ       0.065700
     74 H401        66.4280    52.5240    16.3000 hc         1 OPJ       0.045450
     75 H402        67.3010    52.2650    14.7970 hc         1 OPJ       0.045450
     76 H411        65.7020    54.6810    15.5730 hc         1 OPJ       0.045450
     77 H412        66.2940    54.2260    13.9830 hc         1 OPJ       0.045450
     78 H422        67.6000    55.9980    16.0640 hc         1 OPJ       0.065700
     79 H421        67.8370    56.0520    14.3260 hc         1 OPJ       0.065700
     80 H431        70.7530    58.1270    22.1490 ha         1 OPJ       0.114500
     81 H441        70.7260    60.4450    23.0680 ha         1 OPJ       0.112000
     82 H011        72.1350    60.8250    17.1050 hn         1 OPJ       0.323500
     83 H071        70.8910    55.4590    14.0820 hn         1 OPJ       0.321500
     84 H271        68.8330    54.1880    13.1710 hn         1 OPJ       0.330500
     85 H101        71.4310    59.0150    13.0900 ho         1 OPJ       0.443000
     86 C19         73.3750    59.3870    17.7940 c          1 OPJ       0.639100
     87 H322        76.3190    61.6160    17.1540 h1         1 OPJ       0.060700
@<TRIPOS>BOND
     1     1    15 1   
     2     1    16 ar  
     3     1    18 ar  
     4     2    16 ar  
     5     2    17 ar  
     6     2    44 1   
     7     3    17 ar  
     8     3    18 ar  
     9     3    45 1   
    10     4    22 1   
    11     4    24 1   
    12     4    39 1   
    13     4    46 1   
    14     5    19 ar  
    15     5    20 ar  
    16     5    47 1   
    17     6    19 ar  
    18     6    31 ar  
    19     6    48 1   
    20     7    35 1   
    21     7    40 1   
    22     7    41 2   
    23     8     9 1   
    24     8    10 1   
    25     8    33 1   
    26     8    49 1   
    27     9    11 1   
    28     9    50 1   
    29     9    51 1   
    30    10    19 1   
    31    10    52 1   
    32    10    53 1   
    33    11    12 1   
    34    11    36 1   
    35    11    54 1   
    36    12    15 1   
    37    12    34 1   
    38    12    55 1   
    39    13    14 1   
    40    13    34 1   
    41    13    37 2   
    42    14    27 1   
    43    14    30 1   
    44    14    35 1   
    45    15    56 1   
    46    15    57 1   
    47    16    58 1   
    48    17    59 1   
    49    18    60 1   
    50    20    32 ar  
    51    20    61 1   
    52    21    40 1   
    53    21    62 1   
    54    21    63 1   
    55    21    64 1   
    56    22    42 1   
    57    22    65 1   
    58    22    87 1   
    59    23    24 1   
    60    23    42 1   
    61    23    43 1   
    62    23    66 1   
    63    24    26 1   
    64    24    67 1   
    65    25    26 1   
    66    25    43 1   
    67    25    68 1   
    68    25    69 1   
    69    26    70 1   
    70    26    71 1   
    71    27    28 1   
    72    27    72 1   
    73    27    73 1   
    74    28    29 1   
    75    28    74 1   
    76    28    75 1   
    77    29    30 1   
    78    29    76 1   
    79    29    77 1   
    80    30    78 1   
    81    30    79 1   
    82    31    32 ar  
    83    31    80 1   
    84    32    81 1   
    85    33    82 1   
    86    33    86 1   
    87    34    83 1   
    88    35    84 1   
    89    36    85 1   
    90    38    86 2   
    91    39    86 1   
@<TRIPOS>SUBSTRUCTURE
     1 OPJ         1 TEMP              0 ****  ****    0 ROOT
