@<TRIPOS>MOLECULE
OPL
   19    18     1     0     0
SMALL
No Charge or Current Charge


@<TRIPOS>ATOM
      1 C1          -1.7360    -0.1870    -0.2170 c3         1 OPL       0.388300
      2 O1          -2.8220     0.6320     0.1640 oh         1 OPL      -0.681500
      3 C2          -0.3890     0.3780     0.3230 c3         1 OPL      -0.106700
      4 O2          -2.0270    -1.4420     0.3600 oh         1 OPL      -0.681500
      5 C3           0.8150    -0.5480    -0.0440 c3         1 OPL       0.056300
      6 C4           2.1130    -0.1650     0.7280 c          1 OPL       0.541900
      7 O4           1.0100    -0.5540    -1.4840 oh         1 OPL      -0.639000
      8 C5          -0.1470     1.8520    -0.1180 c3         1 OPL      -0.089100
      9 H2          -0.4640     0.3910     1.4190 hc         1 OPL       0.057700
     10 H3           0.5830    -1.5640     0.3020 h1         1 OPL       0.092700
     11 H4           2.0100    -0.0990     1.8340 h4         1 OPL      -0.002800
     12 HO4          1.9780    -0.6500    -1.6460 ho         1 OPL       0.459000
     13 H5          -0.9350     2.5120     0.2630 hc         1 OPL       0.044700
     14 H5A          0.8070     2.2310     0.2670 hc         1 OPL       0.044700
     15 H5B         -0.1340     1.9390    -1.2110 hc         1 OPL       0.044700
     16 H8          -3.5500     0.4050    -0.4530 ho         1 OPL       0.451000
     17 H9          -1.7010    -0.2760    -1.3140 h2         1 OPL       0.078700
     18 H10         -1.8890    -1.3200     1.3220 ho         1 OPL       0.451000
     19 O3           3.1980     0.0170     0.1810 o          1 OPL      -0.508100
@<TRIPOS>BOND
     1     1     2 1   
     2     1     3 1   
     3     1     4 1   
     4     1    17 1   
     5     2    16 1   
     6     3     5 1   
     7     3     8 1   
     8     3     9 1   
     9     4    18 1   
    10     5     6 1   
    11     5     7 1   
    12     5    10 1   
    13     6    11 1   
    14     6    19 2   
    15     7    12 1   
    16     8    13 1   
    17     8    14 1   
    18     8    15 1   
@<TRIPOS>SUBSTRUCTURE
     1 OPL         1 TEMP              0 ****  ****    0 ROOT
