@<TRIPOS>MOLECULE
OPL
   19    18     1     0     0
SMALL
bcc


@<TRIPOS>ATOM
      1 C1          -1.6900    -0.1760    -0.1900 c3         1 OPL       0.341900
      2 O1          -2.6910     0.7160     0.1990 oh         1 OPL      -0.619300
      3 C2          -0.3610     0.3700     0.3380 c3         1 OPL      -0.106700
      4 O2          -1.9540    -1.4780     0.2510 oh         1 OPL      -0.619300
      5 C3           0.7870    -0.6000     0.0020 c3         1 OPL       0.033100
      6 C4           2.0220    -0.1780     0.7490 c          1 OPL       0.541900
      7 O4           1.0160    -0.7310    -1.3710 oh         1 OPL      -0.576800
      8 C5          -0.0830     1.7720    -0.1980 c3         1 OPL      -0.089100
      9 H2          -0.4360     0.4180     1.4330 hc         1 OPL       0.057700
     10 H3           0.5270    -1.5890     0.4010 h1         1 OPL       0.092700
     11 H4           1.9120    -0.1470     1.8460 h4         1 OPL      -0.002800
     12 HO4          1.7140    -0.1190    -1.6310 ho         1 OPL       0.420000
     13 H5          -0.8450     2.4760     0.1290 hc         1 OPL       0.044700
     14 H5A          0.8760     2.1590     0.1510 hc         1 OPL       0.044700
     15 H5B         -0.0660     1.7890    -1.2890 hc         1 OPL       0.044700
     16 H8          -3.4970     0.5070    -0.2850 ho         1 OPL       0.412000
     17 H9          -1.6410    -0.2580    -1.2820 h2         1 OPL       0.078700
     18 H10         -1.9290    -1.4940     1.2160 ho         1 OPL       0.412000
     19 O3           3.0590     0.1170     0.2080 o          1 OPL      -0.508100
@<TRIPOS>BOND
     1     1     2 1   
     2     1     3 1   
     3     1     4 1   
     4     1    17 1   
     5     2    16 1   
     6     3     5 1   
     7     3     8 1   
     8     3     9 1   
     9     4    18 1   
    10     5     6 1   
    11     5     7 1   
    12     5    10 1   
    13     6    11 1   
    14     6    19 2   
    15     7    12 1   
    16     8    13 1   
    17     8    14 1   
    18     8    15 1   
@<TRIPOS>SUBSTRUCTURE
     1 OPL         1 TEMP              0 ****  ****    0 ROOT
