@<TRIPOS>MOLECULE
OPM
   39    39     1     0     0
SMALL
No Charge or Current Charge


@<TRIPOS>ATOM
      1 C3          20.7470    59.1300   140.3610 c3         1 OPM      -0.068400
      2 C4          21.9300    59.9940   140.8550 c3         1 OPM      -0.075400
      3 C5          22.8900    59.2250   141.7820 c3         1 OPM      -0.089100
      4 C1          20.2890    60.4780   138.1590 c3         1 OPM       0.164600
      5 C2          19.7250    59.8950   139.4810 c3         1 OPM      -0.111400
      6 C11         21.0520    57.2680   136.2040 c6         1 OPM       0.158300
      7 O2          20.2610    56.1210   135.7810 oh         1 OPM      -0.689000
      8 C7          21.8210    57.8950   134.9940 c6         1 OPM       0.185300
      9 O3          22.6870    56.9500   134.3370 oh         1 OPM      -0.644000
     10 C8          20.8190    58.5000   133.9650 c6         1 OPM       0.107300
     11 O4          21.5450    59.0770   132.8510 oh         1 OPM      -0.734000
     12 C9          19.9180    59.5510   134.6950 c6         1 OPM       0.148300
     13 O5          19.2590    58.9430   135.8420 os         1 OPM      -0.455000
     14 C6          18.8130    60.1670   133.7720 c3         1 OPM       0.164600
     15 O6          17.8790    59.1980   133.2560 oh         1 OPM      -0.710000
     16 O1          20.9590    59.4490   137.4000 os         1 OPM      -0.483000
     17 C10         20.1540    58.3890   136.8380 c6         1 OPM       0.342300
     18 H3'1        21.1340    58.2650   139.8080 hc         1 OPM       0.037200
     19 H3'2        20.2170    58.7270   141.2330 hc         1 OPM       0.037200
     20 H4'1        22.4990    60.3680   139.9950 hc         1 OPM       0.039700
     21 H4'2        21.5430    60.8700   141.3900 hc         1 OPM       0.039700
     22 H5'1        23.7120    59.8750   142.1050 hc         1 OPM       0.031367
     23 H5'2        22.3650    58.8670   142.6760 hc         1 OPM       0.031367
     24 H5'3        23.3210    58.3600   141.2630 hc         1 OPM       0.031367
     25 H1'1        19.4720    60.9270   137.5780 h1         1 OPM       0.049700
     26 H1'2        20.9970    61.2820   138.3980 h1         1 OPM       0.049700
     27 H2'1        18.8800    59.2340   139.2570 hc         1 OPM       0.045700
     28 H2'2        19.3070    60.7220   140.0670 hc         1 OPM       0.045700
     29 H2          21.7920    56.9580   136.9570 h1         1 OPM       0.060700
     30 HO2         20.0350    55.6070   136.5900 ho         1 OPM       0.501000
     31 H3          22.4340    58.7230   135.3830 h1         1 OPM       0.054700
     32 HO3         22.8240    57.3360   133.4430 ho         1 OPM       0.455000
     33 H4          20.1650    57.6870   133.6100 h1         1 OPM       0.087700
     34 HO4         20.8980    59.2060   132.1160 ho         1 OPM       0.512000
     35 H5          20.5500    60.3790   135.0500 h1         1 OPM       0.054700
     36 H61         18.2770    60.9250   134.3570 h1         1 OPM       0.027200
     37 H62         19.3040    60.6960   132.9440 h1         1 OPM       0.027200
     38 HO6         17.1460    59.7020   132.8320 ho         1 OPM       0.501000
     39 H1          19.5560    57.9270   137.6380 h2         1 OPM       0.068700
@<TRIPOS>BOND
     1     1     2 1   
     2     1     5 1   
     3     1    18 1   
     4     1    19 1   
     5     2     3 1   
     6     2    20 1   
     7     2    21 1   
     8     3    22 1   
     9     3    23 1   
    10     3    24 1   
    11     4     5 1   
    12     4    16 1   
    13     4    25 1   
    14     4    26 1   
    15     5    27 1   
    16     5    28 1   
    17     6     7 1   
    18     6     8 1   
    19     6    17 1   
    20     6    29 1   
    21     7    30 1   
    22     8     9 1   
    23     8    10 1   
    24     8    31 1   
    25     9    32 1   
    26    10    11 1   
    27    10    12 1   
    28    10    33 1   
    29    11    34 1   
    30    12    13 1   
    31    12    14 1   
    32    12    35 1   
    33    13    17 1   
    34    14    15 1   
    35    14    36 1   
    36    14    37 1   
    37    15    38 1   
    38    16    17 1   
    39    17    39 1   
@<TRIPOS>SUBSTRUCTURE
     1 OPM         1 TEMP              0 ****  ****    0 ROOT
