@<TRIPOS>MOLECULE
OPM
   39    39     1     0     0
SMALL
abcg2


@<TRIPOS>ATOM
      1 C3          20.6860    59.1270   140.2910 c3         1 OPM      -0.068400
      2 C4          21.9540    59.8570   140.7190 c3         1 OPM      -0.075400
      3 C5          22.8350    59.0010   141.6170 c3         1 OPM      -0.089100
      4 C1          20.2900    60.5220   138.1680 c3         1 OPM       0.164600
      5 C2          19.7160    59.9680   139.4650 c3         1 OPM      -0.111400
      6 C11         21.1340    57.4800   136.2740 c6         1 OPM       0.158300
      7 O2          20.4270    56.3170   135.9220 oh         1 OPM      -0.689000
      8 C7          21.8120    58.0290   135.0270 c6         1 OPM       0.185300
      9 O3          22.6360    57.0290   134.4830 oh         1 OPM      -0.644000
     10 C8          20.7660    58.5190   134.0320 c6         1 OPM       0.107300
     11 O4          21.4570    59.1010   132.9470 oh         1 OPM      -0.734000
     12 C9          19.8620    59.5510   134.7180 c6         1 OPM       0.148300
     13 O5          19.2720    58.9900   135.8810 os         1 OPM      -0.455000
     14 C6          18.7470    60.0730   133.8380 c3         1 OPM       0.164600
     15 O6          17.9690    59.0010   133.3620 oh         1 OPM      -0.710000
     16 O1          20.9600    59.5560   137.3740 os         1 OPM      -0.483000
     17 C10         20.1780    58.5350   136.8430 c6         1 OPM       0.342300
     18 H3'1        20.9600    58.2210   139.7410 hc         1 OPM       0.037200
     19 H3'2        20.1600    58.7800   141.1850 hc         1 OPM       0.037200
     20 H4'1        22.5280    60.1610   139.8390 hc         1 OPM       0.039700
     21 H4'2        21.6820    60.7810   141.2390 hc         1 OPM       0.039700
     22 H5'1        23.7440    59.5290   141.9100 hc         1 OPM       0.031367
     23 H5'2        22.3100    58.7150   142.5300 hc         1 OPM       0.031367
     24 H5'3        23.1370    58.0820   141.1100 hc         1 OPM       0.031367
     25 H1'1        19.4970    61.0180   137.5970 h1         1 OPM       0.049700
     26 H1'2        21.0440    61.2810   138.3840 h1         1 OPM       0.049700
     27 H2'1        18.8130    59.3860   139.2650 hc         1 OPM       0.045700
     28 H2'2        19.3830    60.8290   140.0540 hc         1 OPM       0.045700
     29 H2          21.8960    57.2660   137.0360 h1         1 OPM       0.060700
     30 HO2         20.0810    55.9140   136.7250 ho         1 OPM       0.501000
     31 H3          22.4110    58.8980   135.3380 h1         1 OPM       0.054700
     32 HO3         23.0530    57.3930   133.6950 ho         1 OPM       0.455000
     33 H4          20.1650    57.6650   133.7000 h1         1 OPM       0.087700
     34 HO4         20.9190    59.0200   132.1540 ho         1 OPM       0.512000
     35 H5          20.4790    60.4230   134.9820 h1         1 OPM       0.054700
     36 H61         18.1480    60.7840   134.4230 h1         1 OPM       0.027200
     37 H62         19.2000    60.6480   133.0210 h1         1 OPM       0.027200
     38 HO6         17.3110    59.3520   132.7560 ho         1 OPM       0.501000
     39 H1          19.5520    58.0690   137.6170 h2         1 OPM       0.068700
@<TRIPOS>BOND
     1     1     2 1   
     2     1     5 1   
     3     1    18 1   
     4     1    19 1   
     5     2     3 1   
     6     2    20 1   
     7     2    21 1   
     8     3    22 1   
     9     3    23 1   
    10     3    24 1   
    11     4     5 1   
    12     4    16 1   
    13     4    25 1   
    14     4    26 1   
    15     5    27 1   
    16     5    28 1   
    17     6     7 1   
    18     6     8 1   
    19     6    17 1   
    20     6    29 1   
    21     7    30 1   
    22     8     9 1   
    23     8    10 1   
    24     8    31 1   
    25     9    32 1   
    26    10    11 1   
    27    10    12 1   
    28    10    33 1   
    29    11    34 1   
    30    12    13 1   
    31    12    14 1   
    32    12    35 1   
    33    13    17 1   
    34    14    15 1   
    35    14    36 1   
    36    14    37 1   
    37    15    38 1   
    38    16    17 1   
    39    17    39 1   
@<TRIPOS>SUBSTRUCTURE
     1 OPM         1 TEMP              0 ****  ****    0 ROOT
