@<TRIPOS>MOLECULE
OPN
   38    39     1     0     0
SMALL
bcc


@<TRIPOS>ATOM
      1 N1          -4.0920    -3.3490     1.0100 nz         1 OPN      -0.828600
      2 C2          -3.3850    -2.4040     0.1110 c3         1 OPN       0.083800
      3 C3          -3.2580    -1.0310     0.7550 c3         1 OPN       0.098000
      4 N4          -2.6310    -0.1160    -0.1670 n          1 OPN      -0.433800
      5 C5          -3.5180     0.6540    -1.0130 c3         1 OPN      -0.071000
      6 C           -4.0360     1.9480    -0.3460 c          1 OPN       0.921600
      7 O1          -3.7080     2.1540     0.8340 o          1 OPN      -0.815300
      8 C7          -1.3350     0.2490    -0.0890 c          1 OPN       0.687100
      9 O7          -0.8700     1.1370    -0.7870 o          1 OPN      -0.543100
     10 C8          -0.4460    -0.4850     0.9060 c3         1 OPN      -0.105200
     11 C1           0.9860    -0.3460     0.5150 cc         1 OPN      -0.173400
     12 C6           1.8880     0.3630     1.2200 cd         1 OPN      -0.013200
     13 C10          1.3810    -1.0370    -0.7120 c          1 OPN       0.723700
     14 O2           0.6080    -1.7070    -1.3820 o          1 OPN      -0.643500
     15 N3           2.6940    -0.8920    -1.0730 ns         1 OPN      -0.515400
     16 C4           3.6340    -0.1750    -0.3870 ca         1 OPN       0.563200
     17 C11          3.2510     0.4760     0.7940 ca         1 OPN      -0.235100
     18 C12          4.2340     1.2010     1.4680 ca         1 OPN      -0.031000
     19 C13          5.5130     1.2440     0.9520 ca         1 OPN      -0.287300
     20 C9           5.7720     0.5520    -0.2290 ca         1 OPN       0.461200
     21 N10          4.8610    -0.1430    -0.8900 nb         1 OPN      -0.719000
     22 OXT         -4.7560     2.6560    -1.0760 o          1 OPN      -0.815300
     23 H1'1        -5.0270    -3.0200     1.2530 hn         1 OPN       0.446467
     24 H1'2        -3.5890    -3.5030     1.8830 hn         1 OPN       0.446467
     25 H1'3        -4.2050    -4.2610     0.5700 hn         1 OPN       0.446467
     26 H2'1        -2.4110    -2.8360    -0.1100 hx         1 OPN       0.110700
     27 H2'2        -3.9590    -2.3550    -0.8120 hx         1 OPN       0.110700
     28 H3'1        -4.2450    -0.6420     1.0130 h1         1 OPN       0.067700
     29 H3'2        -2.7080    -1.0950     1.6920 h1         1 OPN       0.067700
     30 H5'1        -3.0170     0.8960    -1.9500 h1         1 OPN       0.043700
     31 H5'2        -4.3730     0.0260    -1.2800 h1         1 OPN       0.043700
     32 H8'1        -0.6060    -0.0540     1.8990 hc         1 OPN       0.051700
     33 H8'2        -0.7060    -1.5430     0.9820 hc         1 OPN       0.051700
     34 H6           1.5910     0.8680     2.1320 ha         1 OPN       0.145000
     35 HN3          2.9980    -1.3540    -1.9220 hn         1 OPN       0.342500
     36 H7           3.9850     1.7210     2.3840 ha         1 OPN       0.144000
     37 H8           6.3010     1.7970     1.4420 ha         1 OPN       0.149000
     38 H9           6.7680     0.5640    -0.6570 h4         1 OPN       0.024100
@<TRIPOS>BOND
     1     1     2 1   
     2     1    23 1   
     3     1    24 1   
     4     1    25 1   
     5     2     3 1   
     6     2    26 1   
     7     2    27 1   
     8     3     4 1   
     9     3    28 1   
    10     3    29 1   
    11     4     5 1   
    12     4     8 1   
    13     5     6 1   
    14     5    30 1   
    15     5    31 1   
    16     6     7 1   
    17     6    22 1   
    18     8     9 2   
    19     8    10 1   
    20    10    11 1   
    21    10    32 1   
    22    10    33 1   
    23    11    12 2   
    24    11    13 1   
    25    12    17 1   
    26    12    34 1   
    27    13    14 2   
    28    13    15 1   
    29    15    16 1   
    30    15    35 1   
    31    16    17 ar  
    32    16    21 ar  
    33    17    18 ar  
    34    18    19 ar  
    35    18    36 1   
    36    19    20 ar  
    37    19    37 1   
    38    20    21 ar  
    39    20    38 1   
@<TRIPOS>SUBSTRUCTURE
     1 OPN         1 TEMP              0 ****  ****    0 ROOT
