@<TRIPOS>MOLECULE
OPN
   38    39     1     0     0
SMALL
No Charge or Current Charge


@<TRIPOS>ATOM
      1 N1          -3.5130    -3.6040     0.7680 nz         1 OPN      -0.966000
      2 C2          -2.8880    -2.4210     0.0530 c3         1 OPN       0.055600
      3 C3          -3.3140    -1.0660     0.6550 c3         1 OPN       0.098000
      4 N4          -2.7280     0.0870    -0.0680 n          1 OPN      -0.366800
      5 C5          -3.5930     0.7230    -1.1090 c3         1 OPN      -0.071000
      6 C           -4.4080     1.9570    -0.6430 c          1 OPN       0.711000
      7 O1          -4.9930     1.8980     0.4310 o          1 OPN      -0.710000
      8 C7          -1.5560     0.7550     0.3840 c          1 OPN       0.620100
      9 O7          -1.3000     1.8880    -0.0080 o          1 OPN      -0.543100
     10 C8          -0.5670     0.0490     1.3450 c3         1 OPN      -0.105200
     11 C1           0.8520    -0.0540     0.8110 cc         1 OPN      -0.173400
     12 C6           1.9410     0.5810     1.3890 cd         1 OPN      -0.063200
     13 C10          1.0320    -0.8950    -0.4180 c          1 OPN       0.581200
     14 O2           0.1310    -1.4890    -0.9880 o          1 OPN      -0.568000
     15 N3           2.3130    -0.9660    -0.8860 ns         1 OPN      -0.448400
     16 C4           3.4170    -0.3500    -0.3380 ca         1 OPN       0.497900
     17 C11          3.2780     0.4370     0.8070 ca         1 OPN      -0.169800
     18 C12          4.4240     1.0490     1.3370 ca         1 OPN      -0.013000
     19 C13          5.6440     0.8250     0.6750 ca         1 OPN      -0.204000
     20 C9           5.6730     0.0120    -0.4750 ca         1 OPN       0.395900
     21 N10          4.5670    -0.5790    -0.9870 nb         1 OPN      -0.719000
     22 OXT         -4.4450     2.9340    -1.3770 o          1 OPN      -0.710000
     23 H1'1        -4.5460    -3.6050     0.7360 hn         1 OPN       0.501667
     24 H1'2        -3.2640    -3.6620     1.7690 hn         1 OPN       0.501667
     25 H1'3        -3.2300    -4.5130     0.3660 hn         1 OPN       0.501667
     26 H2'1        -1.7970    -2.5060     0.1050 hx         1 OPN       0.110700
     27 H2'2        -3.1770    -2.4440    -1.0030 hx         1 OPN       0.110700
     28 H3'1        -4.4090    -0.9930     0.6040 h1         1 OPN       0.067700
     29 H3'2        -3.0530    -1.0220     1.7190 h1         1 OPN       0.067700
     30 H5'1        -2.9590     1.0280    -1.9510 h1         1 OPN       0.043700
     31 H5'2        -4.3060    -0.0180    -1.4930 h1         1 OPN       0.043700
     32 H8'1        -0.5600     0.6320     2.2730 hc         1 OPN       0.051700
     33 H8'2        -0.9080    -0.9540     1.6160 hc         1 OPN       0.051700
     34 H6           1.8010     1.1910     2.2780 ha         1 OPN       0.195000
     35 HN3          2.4770    -1.5220    -1.7100 hn         1 OPN       0.342500
     36 H7           4.3740     1.6740     2.2270 ha         1 OPN       0.126000
     37 H8           6.5630     1.2740     1.0410 ha         1 OPN       0.131000
     38 H9           6.6090    -0.1730    -1.0010 h4         1 OPN       0.024100
@<TRIPOS>BOND
     1     1     2 1   
     2     1    23 1   
     3     1    24 1   
     4     1    25 1   
     5     2     3 1   
     6     2    26 1   
     7     2    27 1   
     8     3     4 1   
     9     3    28 1   
    10     3    29 1   
    11     4     5 1   
    12     4     8 1   
    13     5     6 1   
    14     5    30 1   
    15     5    31 1   
    16     6     7 1   
    17     6    22 1   
    18     8     9 2   
    19     8    10 1   
    20    10    11 1   
    21    10    32 1   
    22    10    33 1   
    23    11    12 2   
    24    11    13 1   
    25    12    17 1   
    26    12    34 1   
    27    13    14 2   
    28    13    15 1   
    29    15    16 1   
    30    15    35 1   
    31    16    17 ar  
    32    16    21 ar  
    33    17    18 ar  
    34    18    19 ar  
    35    18    36 1   
    36    19    20 ar  
    37    19    37 1   
    38    20    21 ar  
    39    20    38 1   
@<TRIPOS>SUBSTRUCTURE
     1 OPN         1 TEMP              0 ****  ****    0 ROOT
