@<TRIPOS>MOLECULE
OPO
   15    15     1     0     0
SMALL
abcg2


@<TRIPOS>ATOM
      1 O3           2.0740    -1.1940     0.5710 o          1 OPO      -0.402000
      2 N1           1.5480    -0.2710     0.0020 no         1 OPO       0.701200
      3 O2           2.1570     0.5670    -0.6320 o          1 OPO      -0.402000
      4 C1           0.1070    -0.2270    -0.0230 ca         1 OPO      -0.248200
      5 C2          -0.5660     1.0030    -0.0160 ca         1 OPO       0.199100
      6 OH           0.0680     2.1940     0.0740 oh         1 OPO      -0.538100
      7 C6          -0.5700    -1.4410    -0.0500 ca         1 OPO      -0.024000
      8 C5          -1.9510    -1.4400    -0.0620 ca         1 OPO      -0.142000
      9 C4          -2.6370    -0.2320    -0.0310 ca         1 OPO      -0.042000
     10 C3          -1.9530     0.9720    -0.0080 ca         1 OPO      -0.148000
     11 H6          -0.0210    -2.3720    -0.0610 ha         1 OPO       0.148000
     12 HH           0.8050     2.2340    -0.5460 ho         1 OPO       0.501000
     13 H3          -2.4960     1.9080     0.0180 ha         1 OPO       0.141000
     14 H5          -2.4940    -2.3740    -0.1120 ha         1 OPO       0.131000
     15 H4          -3.7180    -0.2290    -0.0160 ha         1 OPO       0.126000
@<TRIPOS>BOND
     1     1     2 1   
     2     2     3 1   
     3     2     4 1   
     4     4     5 ar  
     5     4     7 ar  
     6     5     6 1   
     7     5    10 ar  
     8     6    12 1   
     9     7     8 ar  
    10     7    11 1   
    11     8     9 ar  
    12     8    14 1   
    13     9    10 ar  
    14     9    15 1   
    15    10    13 1   
@<TRIPOS>SUBSTRUCTURE
     1 OPO         1 TEMP              0 ****  ****    0 ROOT
