@<TRIPOS>MOLECULE
OPO
   15    15     1     0     0
SMALL
No Charge or Current Charge


@<TRIPOS>ATOM
      1 O3           2.1910    -1.3510    -0.1060 o          1 OPO      -0.402000
      2 N1           1.6330    -0.2460    -0.1210 no         1 OPO       0.701200
      3 O2           2.2510     0.8260    -0.1690 o          1 OPO      -0.402000
      4 C1           0.1320    -0.2080    -0.0780 ca         1 OPO      -0.248200
      5 C2          -0.6050     1.0060    -0.0910 ca         1 OPO       0.199100
      6 OH          -0.0010     2.2280    -0.1440 oh         1 OPO      -0.538100
      7 C6          -0.5840    -1.4320    -0.0220 ca         1 OPO      -0.024000
      8 C5          -1.9880    -1.4410     0.0190 ca         1 OPO      -0.142000
      9 C4          -2.7030    -0.2360     0.0060 ca         1 OPO      -0.042000
     10 C3          -2.0080     0.9810    -0.0490 ca         1 OPO      -0.148000
     11 H6          -0.0610    -2.3880    -0.0100 ha         1 OPO       0.148000
     12 HH           0.9730     2.0750    -0.1680 ho         1 OPO       0.501000
     13 H3          -2.5630     1.9160    -0.0590 ha         1 OPO       0.141000
     14 H5          -2.5230    -2.3880     0.0620 ha         1 OPO       0.131000
     15 H4          -3.7910    -0.2440     0.0380 ha         1 OPO       0.126000
@<TRIPOS>BOND
     1     1     2 1   
     2     2     3 1   
     3     2     4 1   
     4     4     5 ar  
     5     4     7 ar  
     6     5     6 1   
     7     5    10 ar  
     8     6    12 1   
     9     7     8 ar  
    10     7    11 1   
    11     8     9 ar  
    12     8    14 1   
    13     9    10 ar  
    14     9    15 1   
    15    10    13 1   
@<TRIPOS>SUBSTRUCTURE
     1 OPO         1 TEMP              0 ****  ****    0 ROOT
