@<TRIPOS>MOLECULE
OPP
   25    26     1     0     0
SMALL
No Charge or Current Charge


@<TRIPOS>ATOM
      1 N            0.0570     0.3370     2.0500 n          1 OPP      -0.429400
      2 C1          -1.2090    -0.1450     2.3550 c          1 OPP       0.554450
      3 O1          -2.1920    -0.1550     1.6340 o          1 OPP      -0.466250
      4 C2          -1.0750    -0.6270     3.7290 cc         1 OPP      -0.232950
      5 C3           0.2150    -0.4060     4.1610 cd         1 OPP      -0.232950
      6 C4           0.9790     0.2300     3.0830 c          1 OPP       0.554450
      7 O4           2.1440     0.5930     3.0850 o          1 OPP      -0.466250
      8 C5           0.3940     0.9450     0.7610 c3         1 OPP       0.327500
      9 O            1.1570    -0.0000    -0.0080 os         1 OPP      -0.452000
     10 C10          0.3880    -0.9490    -0.7660 c3         1 OPP       0.327500
     11 N1           0.0300    -0.3430    -2.0500 n          1 OPP      -0.429400
     12 C6           0.9360    -0.2330    -3.0970 c          1 OPP       0.554450
     13 O2           2.1030    -0.5940    -3.1120 o          1 OPP      -0.466250
     14 C7           0.1580     0.3980    -4.1630 cc         1 OPP      -0.232950
     15 C8          -1.1280     0.6150    -3.7160 cd         1 OPP      -0.232950
     16 C9          -1.2420     0.1330    -2.3370 c          1 OPP       0.554450
     17 O3          -2.2170     0.1420    -1.6040 o          1 OPP      -0.466250
     18 H2          -1.9050    -1.0720     4.2680 ha         1 OPP       0.226750
     19 H3           0.6640    -0.6310     5.1230 ha         1 OPP       0.226750
     20 H51         -0.5270     1.2520     0.2500 h2         1 OPP       0.082200
     21 H52          0.9880     1.8430     0.9710 h2         1 OPP       0.082200
     22 H5'1         0.9830    -1.8440    -0.9840 h2         1 OPP       0.082200
     23 H5'2        -0.5240    -1.2600    -0.2420 h2         1 OPP       0.082200
     24 H1           0.5880     0.6250    -5.1330 ha         1 OPP       0.226750
     25 H4          -1.9700     1.0560    -4.2390 ha         1 OPP       0.226750
@<TRIPOS>BOND
     1     1     2 1   
     2     1     6 1   
     3     1     8 1   
     4     2     3 2   
     5     2     4 1   
     6     4     5 2   
     7     4    18 1   
     8     5     6 1   
     9     5    19 1   
    10     6     7 2   
    11     8     9 1   
    12     8    20 1   
    13     8    21 1   
    14     9    10 1   
    15    10    11 1   
    16    10    22 1   
    17    10    23 1   
    18    11    12 1   
    19    11    16 1   
    20    12    13 2   
    21    12    14 1   
    22    14    15 2   
    23    14    24 1   
    24    15    16 1   
    25    15    25 1   
    26    16    17 2   
@<TRIPOS>SUBSTRUCTURE
     1 OPP         1 TEMP              0 ****  ****    0 ROOT
