@<TRIPOS>MOLECULE
OPP
   25    26     1     0     0
SMALL
bcc


@<TRIPOS>ATOM
      1 N            0.0110     0.3190     2.1170 n          1 OPP      -0.563400
      2 C1          -1.1520    -0.3030     2.5460 c          1 OPP       0.696950
      3 O1          -2.1450    -0.4690     1.8870 o          1 OPP      -0.541750
      4 C2          -0.9130    -0.7110     3.9590 cc         1 OPP      -0.182950
      5 C3           0.3190    -0.3560     4.2990 cd         1 OPP      -0.182950
      6 C4           0.9580     0.3130     3.1310 c          1 OPP       0.696950
      7 O4           2.0670     0.7720     3.0520 o          1 OPP      -0.541750
      8 C5           0.2460     0.8510     0.8000 c3         1 OPP       0.304300
      9 O            0.9720    -0.0380    -0.0020 os         1 OPP      -0.405600
     10 C10          0.2250    -0.8970    -0.8170 c3         1 OPP       0.304300
     11 N1          -0.0230    -0.3310    -2.1190 n          1 OPP      -0.563400
     12 C6           0.9180    -0.2900    -3.1360 c          1 OPP       0.696950
     13 O2           2.0340    -0.7340    -3.0720 o          1 OPP      -0.541750
     14 C7           0.2640     0.3920    -4.2880 cc         1 OPP      -0.182950
     15 C8          -0.9720     0.7210    -3.9350 cd         1 OPP      -0.182950
     16 C9          -1.1990     0.2790    -2.5300 c          1 OPP       0.696950
     17 O3          -2.1930     0.4120    -1.8650 o          1 OPP      -0.541750
     18 H2          -1.6600    -1.2140     4.5530 ha         1 OPP       0.176750
     19 H3           0.8260    -0.4960     5.2420 ha         1 OPP       0.176750
     20 H51         -0.7230     1.1080     0.3690 h2         1 OPP       0.082200
     21 H52          0.8350     1.7610     0.8970 h2         1 OPP       0.082200
     22 H5'1         0.8030    -1.8100    -0.9440 h2         1 OPP       0.082200
     23 H5'2        -0.7410    -1.1550    -0.3800 h2         1 OPP       0.082200
     24 H1           0.7650     0.5610    -5.2290 ha         1 OPP       0.176750
     25 H4          -1.7290     1.2230    -4.5170 ha         1 OPP       0.176750
@<TRIPOS>BOND
     1     1     2 1   
     2     1     6 1   
     3     1     8 1   
     4     2     3 2   
     5     2     4 1   
     6     4     5 2   
     7     4    18 1   
     8     5     6 1   
     9     5    19 1   
    10     6     7 2   
    11     8     9 1   
    12     8    20 1   
    13     8    21 1   
    14     9    10 1   
    15    10    11 1   
    16    10    22 1   
    17    10    23 1   
    18    11    12 1   
    19    11    16 1   
    20    12    13 2   
    21    12    14 1   
    22    14    15 2   
    23    14    24 1   
    24    15    16 1   
    25    15    25 1   
    26    16    17 2   
@<TRIPOS>SUBSTRUCTURE
     1 OPP         1 TEMP              0 ****  ****    0 ROOT
