@<TRIPOS>MOLECULE
OPQ
   82    83     1     0     0
SMALL
abcg2


@<TRIPOS>ATOM
      1 C1           5.3270    -0.5470     7.7150 c3         1 OPQ      -0.089100
      2 C2           3.9250    -0.0150     7.9730 c3         1 OPQ      -0.073400
      3 C3           3.0910     0.0600     6.7010 c3         1 OPQ      -0.095400
      4 C4           1.6900     0.5930     6.9540 c3         1 OPQ       0.103000
      5 N5           0.9600     0.6890     5.7060 ns         1 OPQ      -0.510900
      6 C6          -0.3630     0.8960     5.6270 c          1 OPQ       0.607100
      7 O7          -1.0820     0.9790     6.6130 o          1 OPQ      -0.598100
      8 C8          -0.9140     1.0180     4.2220 c3         1 OPQ      -0.197400
      9 C9          -2.0670     0.0460     3.9910 c3         1 OPQ       0.167300
     10 O11         -1.6960    -1.2740     4.3230 oh         1 OPQ      -0.646000
     11 C12         -2.6160     0.1490     2.5590 c3         1 OPQ       0.076700
     12 C14         -3.9130    -0.6390     2.3930 c3         1 OPQ      -0.088400
     13 C1A         -4.5300    -0.5900     0.9940 c3         1 OPQ      -0.058700
     14 C15         -5.7760    -1.4700     0.9500 c3         1 OPQ      -0.091100
     15 C16         -4.8640     0.8320     0.5540 c3         1 OPQ      -0.091100
     16 N17         -1.6250    -0.3080     1.6010 ns         1 OPQ      -0.510900
     17 C18         -0.9030     0.4870     0.7890 c          1 OPQ       0.589100
     18 O19         -0.9930     1.7040     0.7700 o          1 OPQ      -0.606100
     19 C20          0.0980    -0.2710    -0.0830 c3         1 OPQ       0.029700
     20 N22          0.5350     0.5740    -1.1610 ns         1 OPQ      -0.498900
     21 C23          0.5780     0.1850    -2.4490 c          1 OPQ       0.603100
     22 O24          0.2220    -0.9150    -2.8360 o          1 OPQ      -0.591100
     23 C25          1.1570     1.2280    -3.3940 c3         1 OPQ      -0.111100
     24 C26          0.7320     1.0020    -4.8120 ca         1 OPQ      -0.068300
     25 C27         -0.5410     1.4500    -5.2400 ca         1 OPQ      -0.095000
     26 C28         -0.9680     1.2400    -6.5210 ca         1 OPQ      -0.097000
     27 C29         -0.1480     0.5640    -7.4550 ca         1 OPQ      -0.032000
     28 C30         -0.5590     0.3290    -8.7880 ca         1 OPQ      -0.099000
     29 C31          0.2620    -0.3280    -9.6650 ca         1 OPQ      -0.106000
     30 C32          1.5330    -0.7780    -9.2480 ca         1 OPQ      -0.109000
     31 C33          1.9570    -0.5610    -7.9650 ca         1 OPQ      -0.096000
     32 C34          1.1300     0.1140    -7.0360 ca         1 OPQ      -0.035000
     33 C35          1.5400     0.3490    -5.7030 ca         1 OPQ      -0.076000
     34 C36          1.2690    -0.8120     0.7720 c3         1 OPQ      -0.067700
     35 C37          2.1630    -1.7180    -0.0650 c3         1 OPQ      -0.088100
     36 C38          2.0650     0.3050     1.4510 c3         1 OPQ      -0.079400
     37 C39          3.0310    -0.2070     2.5130 c3         1 OPQ      -0.094100
     38 H40          5.9110    -0.5930     8.6350 hc         1 OPQ       0.033367
     39 H41          5.2960    -1.5530     7.2920 hc         1 OPQ       0.033367
     40 H42          5.8660     0.0900     7.0110 hc         1 OPQ       0.033367
     41 H43          3.4180    -0.6520     8.7040 hc         1 OPQ       0.042700
     42 H44          3.9870     0.9790     8.4260 hc         1 OPQ       0.042700
     43 H45          3.6000     0.7020     5.9730 hc         1 OPQ       0.040200
     44 H46          3.0220    -0.9340     6.2480 hc         1 OPQ       0.040200
     45 H47          1.1530    -0.0720     7.6330 h1         1 OPQ       0.053200
     46 H48          1.7440     1.5720     7.4410 h1         1 OPQ       0.053200
     47 H49          1.5040     0.7200     4.8590 hn         1 OPQ       0.307500
     48 H50         -1.2680     2.0420     4.0790 hc         1 OPQ       0.068200
     49 H51         -0.1300     0.8580     3.4790 hc         1 OPQ       0.068200
     50 H10         -2.8790     0.3060     4.6750 h1         1 OPQ       0.100700
     51 H52         -0.9340    -1.5280     3.7900 ho         1 OPQ       0.434000
     52 H13         -2.8040     1.2050     2.3570 h1         1 OPQ       0.087700
     53 H53         -3.7360    -1.6830     2.6700 hc         1 OPQ       0.055200
     54 H54         -4.6380    -0.2500     3.1160 hc         1 OPQ       0.055200
     55 H55         -3.8070    -1.0050     0.2840 hc         1 OPQ       0.042700
     56 H56         -6.2080    -1.4930    -0.0520 hc         1 OPQ       0.035700
     57 H57         -5.5490    -2.4990     1.2360 hc         1 OPQ       0.035700
     58 H58         -6.5440    -1.0980     1.6320 hc         1 OPQ       0.035700
     59 H59         -5.5520     1.3080     1.2580 hc         1 OPQ       0.035700
     60 H60         -3.9780     1.4630     0.4750 hc         1 OPQ       0.035700
     61 H61         -5.3450     0.8290    -0.4260 hc         1 OPQ       0.035700
     62 H62         -1.5630    -1.3040     1.4480 hn         1 OPQ       0.314500
     63 H21         -0.4120    -1.1300    -0.5250 h1         1 OPQ       0.093700
     64 H63          0.8010     1.5200    -0.9350 hn         1 OPQ       0.329500
     65 H64          0.8830     2.2320    -3.0610 hc         1 OPQ       0.065200
     66 H65          2.2460     1.1660    -3.3090 hc         1 OPQ       0.065200
     67 H66         -1.1800     1.9750    -4.5400 ha         1 OPQ       0.112000
     68 H67         -1.9440     1.5910    -6.8340 ha         1 OPQ       0.114000
     69 H68         -1.5340     0.6770    -9.1050 ha         1 OPQ       0.113000
     70 H69         -0.0600    -0.5040   -10.6830 ha         1 OPQ       0.112000
     71 H70          2.1720    -1.2960    -9.9500 ha         1 OPQ       0.112000
     72 H71          2.9330    -0.9060    -7.6470 ha         1 OPQ       0.112000
     73 H72          2.5190    -0.0010    -5.3930 ha         1 OPQ       0.111000
     74 H73          0.8140    -1.4270     1.5590 hc         1 OPQ       0.043700
     75 H74          2.7060    -1.1510    -0.8240 hc         1 OPQ       0.042033
     76 H75          2.9020    -2.2200     0.5590 hc         1 OPQ       0.042033
     77 H76          1.5840    -2.4910    -0.5710 hc         1 OPQ       0.042033
     78 H77          2.6190     0.8720     0.6970 hc         1 OPQ       0.044200
     79 H78          1.3870     1.0230     1.9210 hc         1 OPQ       0.044200
     80 H79          3.5230     0.6220     3.0240 hc         1 OPQ       0.034033
     81 H80          2.5090    -0.8050     3.2640 hc         1 OPQ       0.034033
     82 H81          3.8140    -0.8370     2.0900 hc         1 OPQ       0.034033
@<TRIPOS>BOND
     1     1     2 1   
     2     1    38 1   
     3     1    39 1   
     4     1    40 1   
     5     2     3 1   
     6     2    41 1   
     7     2    42 1   
     8     3     4 1   
     9     3    43 1   
    10     3    44 1   
    11     4     5 1   
    12     4    45 1   
    13     4    46 1   
    14     5     6 1   
    15     5    47 1   
    16     6     7 2   
    17     6     8 1   
    18     8     9 1   
    19     8    48 1   
    20     8    49 1   
    21     9    10 1   
    22     9    11 1   
    23     9    50 1   
    24    10    51 1   
    25    11    12 1   
    26    11    16 1   
    27    11    52 1   
    28    12    13 1   
    29    12    53 1   
    30    12    54 1   
    31    13    14 1   
    32    13    15 1   
    33    13    55 1   
    34    14    56 1   
    35    14    57 1   
    36    14    58 1   
    37    15    59 1   
    38    15    60 1   
    39    15    61 1   
    40    16    17 1   
    41    16    62 1   
    42    17    18 2   
    43    17    19 1   
    44    19    20 1   
    45    19    34 1   
    46    19    63 1   
    47    20    21 1   
    48    20    64 1   
    49    21    22 2   
    50    21    23 1   
    51    23    24 1   
    52    23    65 1   
    53    23    66 1   
    54    24    25 ar  
    55    24    33 ar  
    56    25    26 ar  
    57    25    67 1   
    58    26    27 ar  
    59    26    68 1   
    60    27    28 ar  
    61    27    32 ar  
    62    28    29 ar  
    63    28    69 1   
    64    29    30 ar  
    65    29    70 1   
    66    30    31 ar  
    67    30    71 1   
    68    31    32 ar  
    69    31    72 1   
    70    32    33 ar  
    71    33    73 1   
    72    34    35 1   
    73    34    36 1   
    74    34    74 1   
    75    35    75 1   
    76    35    76 1   
    77    35    77 1   
    78    36    37 1   
    79    36    78 1   
    80    36    79 1   
    81    37    80 1   
    82    37    81 1   
    83    37    82 1   
@<TRIPOS>SUBSTRUCTURE
     1 OPQ         1 TEMP              0 ****  ****    0 ROOT
