@<TRIPOS>MOLECULE
OPQ
   82    83     1     0     0
SMALL
No Charge or Current Charge


@<TRIPOS>ATOM
      1 C1           4.3850     0.3880     8.9880 c3         1 OPQ      -0.089100
      2 C2           3.0290     1.0510     8.6770 c3         1 OPQ      -0.073400
      3 C3           2.5270     0.7580     7.2470 c3         1 OPQ      -0.095400
      4 C4           1.1720     1.4230     6.9390 c3         1 OPQ       0.103000
      5 N5           0.7280     1.1260     5.5790 ns         1 OPQ      -0.510900
      6 C6          -0.4190     1.6260     5.0080 c          1 OPQ       0.607100
      7 O7          -1.1630     2.3950     5.6010 o          1 OPQ      -0.598100
      8 C8          -0.6640     1.1980     3.5640 c3         1 OPQ      -0.197400
      9 C9          -1.8690     0.2410     3.4530 c3         1 OPQ       0.167300
     10 O11         -1.5370    -0.9830     4.1250 oh         1 OPQ      -0.646000
     11 C12         -2.2900    -0.0480     1.9750 c3         1 OPQ       0.076700
     12 C14         -3.6130    -0.8560     1.8730 c3         1 OPQ      -0.088400
     13 C1A         -4.1280    -1.1290     0.4300 c3         1 OPQ      -0.058700
     14 C15         -5.3910    -2.0190     0.4570 c3         1 OPQ      -0.091100
     15 C16         -4.3900     0.1680    -0.3720 c3         1 OPQ      -0.091100
     16 N17         -1.2180    -0.7090     1.2080 ns         1 OPQ      -0.510900
     17 C18         -0.3430    -0.0640     0.3550 c          1 OPQ       0.589100
     18 O19         -0.3950     1.1450     0.1640 o          1 OPQ      -0.606100
     19 C20          0.7050    -0.9900    -0.3320 c3         1 OPQ       0.029700
     20 N22          1.3630    -0.2730    -1.4510 ns         1 OPQ      -0.498900
     21 C23          1.6810    -0.8210    -2.6740 c          1 OPQ       0.603100
     22 O24          1.4380    -1.9870    -2.9530 o          1 OPQ      -0.591100
     23 C25          2.3330     0.1460    -3.6650 c3         1 OPQ      -0.111100
     24 C26          1.3050     0.6570    -4.6690 ca         1 OPQ      -0.068300
     25 C27          0.5200     1.7860    -4.3660 ca         1 OPQ      -0.095000
     26 C28         -0.4350     2.2540    -5.2850 ca         1 OPQ      -0.097000
     27 C29         -0.6130     1.5960    -6.5160 ca         1 OPQ      -0.032000
     28 C30         -1.5690     2.0610    -7.4390 ca         1 OPQ      -0.099000
     29 C31         -1.7430     1.3980    -8.6670 ca         1 OPQ      -0.106000
     30 C32         -0.9640     0.2700    -8.9740 ca         1 OPQ      -0.109000
     31 C33         -0.0080    -0.1980    -8.0550 ca         1 OPQ      -0.096000
     32 C34          0.1700     0.4630    -6.8240 ca         1 OPQ      -0.035000
     33 C35          1.1250    -0.0020    -5.9000 ca         1 OPQ      -0.076000
     34 C36          1.7430    -1.5570     0.6910 c3         1 OPQ      -0.067700
     35 C37          2.5590    -2.7290     0.0910 c3         1 OPQ      -0.088100
     36 C38          2.6600    -0.4480     1.2910 c3         1 OPQ      -0.079400
     37 C39          3.5010    -0.9000     2.5040 c3         1 OPQ      -0.094100
     38 H40          4.7000     0.6240    10.0120 hc         1 OPQ       0.033367
     39 H41          4.3140    -0.7020     8.8940 hc         1 OPQ       0.033367
     40 H42          5.1590     0.7470     8.3000 hc         1 OPQ       0.033367
     41 H43          2.2850     0.7000     9.4040 hc         1 OPQ       0.042700
     42 H44          3.1230     2.1360     8.8150 hc         1 OPQ       0.042700
     43 H45          3.2720     1.1100     6.5230 hc         1 OPQ       0.040200
     44 H46          2.4340    -0.3270     7.1130 hc         1 OPQ       0.040200
     45 H47          0.4130     1.0610     7.6460 h1         1 OPQ       0.053200
     46 H48          1.2610     2.5110     7.0550 h1         1 OPQ       0.053200
     47 H49          1.2870     0.5000     5.0120 hn         1 OPQ       0.307500
     48 H50         -0.8850     2.0970     2.9780 hc         1 OPQ       0.068200
     49 H51          0.2290     0.7090     3.1600 hc         1 OPQ       0.068200
     50 H10         -2.7250     0.7210     3.9500 h1         1 OPQ       0.100700
     51 H52         -0.8890    -1.4510     3.5590 ho         1 OPQ       0.434000
     52 H13         -2.4830     0.9320     1.5180 h1         1 OPQ       0.087700
     53 H53         -3.4770    -1.8180     2.3820 hc         1 OPQ       0.055200
     54 H54         -4.3930    -0.3220     2.4300 hc         1 OPQ       0.055200
     55 H55         -3.3560    -1.6950    -0.1080 hc         1 OPQ       0.042700
     56 H56         -5.7200    -2.2590    -0.5610 hc         1 OPQ       0.035700
     57 H57         -5.1890    -2.9640     0.9760 hc         1 OPQ       0.035700
     58 H58         -6.2150    -1.5130     0.9740 hc         1 OPQ       0.035700
     59 H59         -5.1080     0.8120     0.1500 hc         1 OPQ       0.035700
     60 H60         -3.4640     0.7340    -0.5250 hc         1 OPQ       0.035700
     61 H61         -4.7980    -0.0660    -1.3630 hc         1 OPQ       0.035700
     62 H62         -1.1420    -1.7180     1.2590 hn         1 OPQ       0.314500
     63 H21          0.1290    -1.8290    -0.7440 h1         1 OPQ       0.093700
     64 H63          1.5560     0.7150    -1.3310 hn         1 OPQ       0.329500
     65 H64          2.7580     1.0010    -3.1240 hc         1 OPQ       0.065200
     66 H65          3.1360    -0.3810    -4.1940 hc         1 OPQ       0.065200
     67 H66          0.6460     2.3020    -3.4170 ha         1 OPQ       0.112000
     68 H67         -1.0350     3.1270    -5.0380 ha         1 OPQ       0.114000
     69 H68         -2.1760     2.9340    -7.2080 ha         1 OPQ       0.113000
     70 H69         -2.4820     1.7590    -9.3790 ha         1 OPQ       0.112000
     71 H70         -1.1000    -0.2420    -9.9240 ha         1 OPQ       0.112000
     72 H71          0.5910    -1.0720    -8.3000 ha         1 OPQ       0.112000
     73 H72          1.7250    -0.8780    -6.1370 ha         1 OPQ       0.111000
     74 H73          1.1690    -1.9850     1.5230 hc         1 OPQ       0.043700
     75 H74          3.2570    -2.3720    -0.6760 hc         1 OPQ       0.042033
     76 H75          3.1380    -3.2440     0.8660 hc         1 OPQ       0.042033
     77 H76          1.8930    -3.4700    -0.3680 hc         1 OPQ       0.042033
     78 H77          3.3360    -0.0690     0.5150 hc         1 OPQ       0.044200
     79 H78          2.0470     0.4030     1.6080 hc         1 OPQ       0.044200
     80 H79          4.0500    -0.0470     2.9220 hc         1 OPQ       0.034033
     81 H80          2.8590    -1.3110     3.2920 hc         1 OPQ       0.034033
     82 H81          4.2350    -1.6620     2.2180 hc         1 OPQ       0.034033
@<TRIPOS>BOND
     1     1     2 1   
     2     1    38 1   
     3     1    39 1   
     4     1    40 1   
     5     2     3 1   
     6     2    41 1   
     7     2    42 1   
     8     3     4 1   
     9     3    43 1   
    10     3    44 1   
    11     4     5 1   
    12     4    45 1   
    13     4    46 1   
    14     5     6 1   
    15     5    47 1   
    16     6     7 2   
    17     6     8 1   
    18     8     9 1   
    19     8    48 1   
    20     8    49 1   
    21     9    10 1   
    22     9    11 1   
    23     9    50 1   
    24    10    51 1   
    25    11    12 1   
    26    11    16 1   
    27    11    52 1   
    28    12    13 1   
    29    12    53 1   
    30    12    54 1   
    31    13    14 1   
    32    13    15 1   
    33    13    55 1   
    34    14    56 1   
    35    14    57 1   
    36    14    58 1   
    37    15    59 1   
    38    15    60 1   
    39    15    61 1   
    40    16    17 1   
    41    16    62 1   
    42    17    18 2   
    43    17    19 1   
    44    19    20 1   
    45    19    34 1   
    46    19    63 1   
    47    20    21 1   
    48    20    64 1   
    49    21    22 2   
    50    21    23 1   
    51    23    24 1   
    52    23    65 1   
    53    23    66 1   
    54    24    25 ar  
    55    24    33 ar  
    56    25    26 ar  
    57    25    67 1   
    58    26    27 ar  
    59    26    68 1   
    60    27    28 ar  
    61    27    32 ar  
    62    28    29 ar  
    63    28    69 1   
    64    29    30 ar  
    65    29    70 1   
    66    30    31 ar  
    67    30    71 1   
    68    31    32 ar  
    69    31    72 1   
    70    32    33 ar  
    71    33    73 1   
    72    34    35 1   
    73    34    36 1   
    74    34    74 1   
    75    35    75 1   
    76    35    76 1   
    77    35    77 1   
    78    36    37 1   
    79    36    78 1   
    80    36    79 1   
    81    37    80 1   
    82    37    81 1   
    83    37    82 1   
@<TRIPOS>SUBSTRUCTURE
     1 OPQ         1 TEMP              0 ****  ****    0 ROOT
