@<TRIPOS>MOLECULE
OPR
   33    32     1     0     0
SMALL
bcc


@<TRIPOS>ATOM
      1 N            0.0420     2.9280     0.2850 n8         1 OPR      -0.888800
      2 CA           0.4640     1.5460     0.3770 c3         1 OPR       0.049500
      3 CB          -0.5630     0.6280    -0.2990 c3         1 OPR      -0.061400
      4 CG          -1.9240     0.6740     0.3800 c3         1 OPR      -0.084400
      5 CD          -2.9220    -0.2540    -0.2930 c3         1 OPR       0.213800
      6 NE          -4.2050    -0.1750     0.3720 nu         1 OPR      -0.851200
      7 CZ          -5.3100    -0.8970     0.0060 c2         1 OPR       0.809100
      8 NH1         -6.2870    -1.0010     0.8350 n2         1 OPR      -0.921100
      9 NH2         -5.3020    -1.3770    -1.2820 nv         1 OPR      -0.966800
     10 C            1.8350     1.2660    -0.2390 c          1 OPR       0.529100
     11 O            2.2430     1.9300    -1.1670 o          1 OPR      -0.548100
     12 C1           2.6190     0.1410     0.3770 c3         1 OPR      -0.147400
     13 C2           3.8780    -0.2610    -0.3660 c3         1 OPR      -0.203400
     14 C3           4.7030    -1.3680     0.3170 c          1 OPR       0.927600
     15 O3           4.3860    -1.7000     1.4760 o          1 OPR      -0.843800
     16 H            0.6710     3.5170     0.8160 hn         1 OPR       0.344300
     17 H2           0.1160     3.2400    -0.6770 hn         1 OPR       0.344300
     18 HA           0.5110     1.2730     1.4370 h1         1 OPR       0.072700
     19 HB2         -0.6610     0.9200    -1.3510 hc         1 OPR       0.047700
     20 HB3         -0.1920    -0.4010    -0.2980 hc         1 OPR       0.047700
     21 HG2         -1.8120     0.3850     1.4300 hc         1 OPR       0.056700
     22 HG3         -2.3070     1.6960     0.3710 hc         1 OPR       0.056700
     23 HD2         -3.0330     0.0460    -1.3400 h1         1 OPR       0.032200
     24 HD3         -2.5210    -1.2770    -0.2950 h1         1 OPR       0.032200
     25 HE          -4.1710     0.0080     1.3620 hn         1 OPR       0.436800
     26 HH1         -7.0480    -1.5320     0.4280 hn         1 OPR       0.371400
     27 HH21        -4.4170    -1.5950    -1.7100 hn         1 OPR       0.399300
     28 HH22        -6.0020    -2.0710    -1.4860 hn         1 OPR       0.399300
     29 H11          2.8550     0.4540     1.4000 hc         1 OPR       0.063700
     30 H12          1.9480    -0.7140     0.5090 hc         1 OPR       0.063700
     31 H21          3.6310    -0.5840    -1.3810 hc         1 OPR       0.030700
     32 H22          4.5290     0.6100    -0.4920 hc         1 OPR       0.030700
     33 O31          5.6440    -1.8360    -0.3560 o          1 OPR      -0.843800
@<TRIPOS>BOND
     1     1     2 1   
     2     1    16 1   
     3     1    17 1   
     4     2     3 1   
     5     2    10 1   
     6     2    18 1   
     7     3     4 1   
     8     3    19 1   
     9     3    20 1   
    10     4     5 1   
    11     4    21 1   
    12     4    22 1   
    13     5     6 1   
    14     5    23 1   
    15     5    24 1   
    16     6     7 1   
    17     6    25 1   
    18     7     8 2   
    19     7     9 1   
    20     8    26 1   
    21     9    27 1   
    22     9    28 1   
    23    10    11 2   
    24    10    12 1   
    25    12    13 1   
    26    12    29 1   
    27    12    30 1   
    28    13    14 1   
    29    13    31 1   
    30    13    32 1   
    31    14    15 1   
    32    14    33 1   
@<TRIPOS>SUBSTRUCTURE
     1 OPR         1 TEMP              0 ****  ****    0 ROOT
