@<TRIPOS>MOLECULE
OPR
   33    32     1     0     0
SMALL
No Charge or Current Charge


@<TRIPOS>ATOM
      1 N            0.1870     2.8060    -0.2770 n8         1 OPR      -0.888800
      2 CA           0.5890     1.3620    -0.2000 c3         1 OPR       0.049500
      3 CB          -0.5680     0.4460    -0.6840 c3         1 OPR      -0.061400
      4 CG          -1.8470     0.5180     0.1870 c3         1 OPR      -0.084400
      5 CD          -2.9560    -0.4370    -0.2960 c3         1 OPR       0.213800
      6 NE          -4.1400    -0.3300     0.5650 nu         1 OPR      -0.851200
      7 CZ          -5.2200    -1.0720     0.3760 c2         1 OPR       0.809100
      8 NH1         -5.7370    -1.6170     1.3650 n2         1 OPR      -0.921100
      9 NH2         -5.9020    -0.5520    -0.6200 nv         1 OPR      -0.966800
     10 C            1.9310     1.0100    -0.9330 c          1 OPR       0.529100
     11 O            2.3650     1.6860    -1.8610 o          1 OPR      -0.548100
     12 C1           2.7030    -0.2150    -0.4130 c3         1 OPR      -0.147400
     13 C2           3.8260     0.1890     0.5870 c3         1 OPR      -0.203400
     14 C3           4.5870    -1.0520     1.0940 c          1 OPR       0.927600
     15 O3           4.1600    -1.6310     2.0850 o          1 OPR      -0.843800
     16 H            0.9430     3.3910     0.0970 hn         1 OPR       0.344300
     17 H2           0.1300     3.0830    -1.2630 hn         1 OPR       0.344300
     18 HA           0.7650     1.1320     0.8610 h1         1 OPR       0.072700
     19 HB2         -0.8190     0.6980    -1.7230 hc         1 OPR       0.047700
     20 HB3         -0.2210    -0.5950    -0.6950 hc         1 OPR       0.047700
     21 HG2         -1.5880     0.2750     1.2250 hc         1 OPR       0.056700
     22 HG3         -2.2370     1.5440     0.1830 hc         1 OPR       0.056700
     23 HD2         -3.2180    -0.1880    -1.3340 h1         1 OPR       0.032200
     24 HD3         -2.5790    -1.4680    -0.2800 h1         1 OPR       0.032200
     25 HE          -3.9360    -0.2920     1.5550 hn         1 OPR       0.436800
     26 HH1         -6.7070    -1.8230     1.1040 hn         1 OPR       0.371400
     27 HH21        -5.3350     0.1320    -1.0960 hn         1 OPR       0.399300
     28 HH22        -6.3250    -1.2440    -1.2230 hn         1 OPR       0.399300
     29 H11          2.0150    -0.8820     0.1210 hc         1 OPR       0.063700
     30 H12          3.1570    -0.7410    -1.2620 hc         1 OPR       0.063700
     31 H21          4.5050     0.8440     0.0280 hc         1 OPR       0.030700
     32 H22          3.3210     0.6890     1.4220 hc         1 OPR       0.030700
     33 O31          5.5490    -1.4490     0.4510 o          1 OPR      -0.843800
@<TRIPOS>BOND
     1     1     2 1   
     2     1    16 1   
     3     1    17 1   
     4     2     3 1   
     5     2    10 1   
     6     2    18 1   
     7     3     4 1   
     8     3    19 1   
     9     3    20 1   
    10     4     5 1   
    11     4    21 1   
    12     4    22 1   
    13     5     6 1   
    14     5    23 1   
    15     5    24 1   
    16     6     7 1   
    17     6    25 1   
    18     7     8 2   
    19     7     9 1   
    20     8    26 1   
    21     9    27 1   
    22     9    28 1   
    23    10    11 2   
    24    10    12 1   
    25    12    13 1   
    26    12    29 1   
    27    12    30 1   
    28    13    14 1   
    29    13    31 1   
    30    13    32 1   
    31    14    15 1   
    32    14    33 1   
@<TRIPOS>SUBSTRUCTURE
     1 OPR         1 TEMP              0 ****  ****    0 ROOT
