@<TRIPOS>MOLECULE
OPT
  115   119     1     0     0
SMALL
No Charge or Current Charge


@<TRIPOS>ATOM
      1 C1          -5.9810     0.4470    -0.5860 c3         1 OPT      -0.111100
      2 C2          -4.8290     0.0560     0.3460 c          1 OPT       0.608100
      3 C7          -5.7830     1.8610    -1.1230 ca         1 OPT      -0.066300
      4 C8          -6.3700     2.9590    -0.4700 ca         1 OPT      -0.092500
      5 C9          -6.1800     4.2620    -0.9610 ca         1 OPT      -0.099500
      6 C10         -4.8100     8.5300    -3.6340 ca         1 OPT      -0.109000
      7 C11         -5.0970     6.1460    -4.0340 ca         1 OPT      -0.100000
      8 C12         -5.1950     5.8930    -2.6420 cp         1 OPT      -0.031000
      9 C13         -4.9070     7.4490    -4.5250 ca         1 OPT      -0.112000
     10 C14         -5.0950     7.0010    -1.7610 ca         1 OPT      -0.100000
     11 C15         -4.9040     8.3050    -2.2520 ca         1 OPT      -0.112000
     12 C20         -2.8500    -2.7800     0.8290 c3         1 OPT       0.025600
     13 C22         -4.2180    -4.9090     2.1020 c3         1 OPT       0.106900
     14 C24         -6.5980    -5.7210     2.4730 ca         1 OPT      -0.092500
     15 C27         -6.1250    -6.0750     5.2200 ca         1 OPT      -0.110500
     16 N29         -0.2040    -1.2310     0.2830 ns         1 OPT      -0.487900
     17 C30          1.1400    -1.1190    -0.3300 c3         1 OPT       0.031700
     18 C31          1.7030    -2.5180    -0.7040 c3         1 OPT      -0.095400
     19 C32          0.8530    -3.3160    -1.7210 c3         1 OPT      -0.073400
     20 C33          1.5010    -4.6600    -2.1120 c3         1 OPT       0.165800
     21 C35          1.0740    -6.6400    -3.4400 c3         1 OPT       0.627900
     22 O3          -4.7540     0.4540     1.5000 o          1 OPT      -0.580100
     23 C4          -5.3980     4.5040    -2.1190 cp         1 OPT      -0.031000
     24 C5          -4.8130     3.3850    -2.7630 ca         1 OPT      -0.099500
     25 C6          -5.0020     2.0810    -2.2720 ca         1 OPT      -0.092500
     26 N16         -3.8690    -0.7520    -0.2230 ns         1 OPT      -0.501900
     27 C17         -2.6730    -1.2820     0.4780 c3         1 OPT       0.048700
     28 C18         -1.4000    -1.0790    -0.3890 c          1 OPT       0.596100
     29 O19         -1.4390    -0.8010    -1.5820 o          1 OPT      -0.604100
     30 C23         -5.3290    -5.4220     3.0070 ca         1 OPT      -0.078300
     31 C25         -5.0980    -5.6000     4.3850 ca         1 OPT      -0.092500
     32 C26         -7.6250    -6.1960     3.3080 ca         1 OPT      -0.110500
     33 C28         -7.3880    -6.3730     4.6820 ca         1 OPT      -0.103000
     34 N34          0.6490    -5.3710    -3.0890 n7         1 OPT      -0.859400
     35 N36          0.1990    -6.9160    -4.4320 n8         1 OPT      -1.021200
     36 N37          2.1120    -6.4780    -4.2760 n8         1 OPT      -1.021200
     37 C38          2.1070    -0.3760     0.6360 c          1 OPT       0.598100
     38 O39          1.8460    -0.1740     1.8160 o          1 OPT      -0.609100
     39 N40          3.2890     0.0530     0.0650 ns         1 OPT      -0.482900
     40 C41          4.4320     0.6300     0.8120 c3         1 OPT       0.029700
     41 C42          4.9880     1.8890     0.0880 c          1 OPT       0.589100
     42 O43          4.6670     2.2070    -1.0510 o          1 OPT      -0.599100
     43 C44          5.5400    -0.4360     1.0280 c3         1 OPT      -0.039100
     44 C45          5.0120    -1.7700     1.5520 ca         1 OPT      -0.125300
     45 C46          4.5050    -1.8670     2.8630 ca         1 OPT      -0.065500
     46 C47          5.0140    -2.9120     0.7260 ca         1 OPT      -0.065500
     47 C48          4.0010    -3.0900     3.3380 ca         1 OPT      -0.174500
     48 C49          4.5100    -4.1340     1.2030 ca         1 OPT      -0.174500
     49 C50          4.0030    -4.2210     2.5090 ca         1 OPT       0.136100
     50 O51          3.5130    -5.4020     2.9800 oh         1 OPT      -0.535100
     51 C52          8.3280     5.5960     0.7670 ca         1 OPT      -0.085300
     52 C53          7.8380     6.8670     1.1270 ca         1 OPT      -0.103000
     53 C54          8.4650     8.0310     0.6480 ca         1 OPT      -0.108000
     54 C55          9.5840     7.9300    -0.1960 ca         1 OPT      -0.106000
     55 C56         10.0760     6.6650    -0.5600 ca         1 OPT      -0.108000
     56 C57          9.4490     5.5020    -0.0800 ca         1 OPT      -0.103000
     57 C58          7.6460     4.3360     1.2810 c3         1 OPT      -0.048100
     58 C59          6.5330     3.8570     0.3310 c3         1 OPT       0.102000
     59 N60          5.8810     2.6410     0.8220 ns         1 OPT      -0.503900
     60 H1          -6.0280    -0.2520    -1.4300 hc         1 OPT       0.067200
     61 H1A         -6.9190     0.3940    -0.0220 hc         1 OPT       0.067200
     62 H8          -6.9750     2.8060     0.4210 ha         1 OPT       0.113500
     63 H9          -6.6560     5.0910    -0.4450 ha         1 OPT       0.113500
     64 H10         -4.6620     9.5380    -4.0140 ha         1 OPT       0.111000
     65 H11         -5.1820     5.3260    -4.7430 ha         1 OPT       0.114500
     66 H13         -4.8370     7.6210    -5.5970 ha         1 OPT       0.111500
     67 H14         -5.1520     6.8480    -0.6870 ha         1 OPT       0.114500
     68 H15         -4.8260     9.1400    -1.5590 ha         1 OPT       0.111500
     69 H20         -3.0090    -3.3550    -0.0930 h1         1 OPT       0.064700
     70 H20A        -1.9400    -3.1590     1.3120 h1         1 OPT       0.064700
     71 H22         -4.3220    -5.3450     1.1000 h1         1 OPT       0.061700
     72 H22A        -3.2410    -5.2080     2.5030 h1         1 OPT       0.061700
     73 H24         -6.7890    -5.5830     1.4110 ha         1 OPT       0.114500
     74 H27         -5.9420    -6.2100     6.2840 ha         1 OPT       0.114000
     75 HN29        -0.2540    -1.4050     1.2810 hn         1 OPT       0.336500
     76 H30          1.0730    -0.5060    -1.2390 h1         1 OPT       0.099700
     77 H31          2.7110    -2.3960    -1.1200 hc         1 OPT       0.055200
     78 H31A         1.8160    -3.1130     0.2120 hc         1 OPT       0.055200
     79 H32         -0.1400    -3.5120    -1.2970 hc         1 OPT       0.051700
     80 H32A         0.7070    -2.7100    -2.6240 hc         1 OPT       0.051700
     81 H33          2.4970    -4.4610    -2.5310 h1         1 OPT       0.034200
     82 H33A         1.6360    -5.2670    -1.2060 h1         1 OPT       0.034200
     83 H5          -4.1940     3.5280    -3.6450 ha         1 OPT       0.113500
     84 H6          -4.5350     1.2440    -2.7860 ha         1 OPT       0.113500
     85 HN16        -3.9920    -0.9860    -1.2010 hn         1 OPT       0.331500
     86 H17         -2.5150    -0.7180     1.4070 h1         1 OPT       0.104700
     87 H25         -4.1240    -5.3680     4.8100 ha         1 OPT       0.114500
     88 H26         -8.6030    -6.4250     2.8910 ha         1 OPT       0.114000
     89 H28         -8.1830    -6.7400     5.3280 ha         1 OPT       0.113000
     90 HN34        -0.2470    -5.5190    -2.6200 hn         1 OPT       0.413000
     91 HN36        -0.5800    -7.4190    -4.0040 hn         1 OPT       0.404750
     92 HN3A        -0.1810    -5.9980    -4.6570 hn         1 OPT       0.404750
     93 HN37         1.8070    -7.0180    -5.0820 hn         1 OPT       0.404750
     94 HN40         3.4020    -0.1070    -0.9300 hn         1 OPT       0.334500
     95 H41          4.0790     0.9670     1.7960 h1         1 OPT       0.088700
     96 H44          6.0640    -0.5920     0.0760 hc         1 OPT       0.060700
     97 H44A         6.2930    -0.0410     1.7210 hc         1 OPT       0.060700
     98 H46          4.4940    -0.9920     3.5110 ha         1 OPT       0.118500
     99 H47          5.4010    -2.8530    -0.2900 ha         1 OPT       0.118500
    100 H48          3.6080    -3.1580     4.3490 ha         1 OPT       0.125000
    101 H49          4.5150    -5.0060     0.5530 ha         1 OPT       0.125000
    102 HO51         3.6120    -6.0810     2.2800 ho         1 OPT       0.464000
    103 H53          6.9710     6.9540     1.7780 ha         1 OPT       0.111500
    104 H54          8.0820     9.0090     0.9290 ha         1 OPT       0.114000
    105 H55         10.0690     8.8310    -0.5670 ha         1 OPT       0.114000
    106 H56         10.9420     6.5860    -1.2140 ha         1 OPT       0.114000
    107 H57          9.8350     4.5260    -0.3690 ha         1 OPT       0.111500
    108 H58          8.3820     3.5330     1.4060 hc         1 OPT       0.050200
    109 H58A         7.2160     4.5180     2.2740 hc         1 OPT       0.050200
    110 H59          5.7770     4.6460     0.2230 h1         1 OPT       0.059700
    111 H59A         6.9640     3.6570    -0.6600 h1         1 OPT       0.059700
    112 HN60         6.0940     2.3210     1.7600 hn         1 OPT       0.315500
    113 H541         1.1840    -7.4400    -2.6990 h3         1 OPT      -0.005300
    114 H551         1.9420    -5.5240    -4.5760 hn         1 OPT       0.404750
    115 SG2         -4.2810    -3.0660     1.9700 ss         1 OPT      -0.393000
@<TRIPOS>BOND
     1     1     2 1   
     2     1     3 1   
     3     1    60 1   
     4     1    61 1   
     5     2    22 2   
     6     2    26 1   
     7     3     4 ar  
     8     3    25 ar  
     9     4     5 ar  
    10     4    62 1   
    11     5    23 ar  
    12     5    63 1   
    13     6     9 ar  
    14     6    11 ar  
    15     6    64 1   
    16     7     8 ar  
    17     7     9 ar  
    18     7    65 1   
    19     8    10 ar  
    20     8    23 1   
    21     9    66 1   
    22    10    11 ar  
    23    10    67 1   
    24    11    68 1   
    25    12    27 1   
    26    12    69 1   
    27    12    70 1   
    28    12   115 1   
    29    13    30 1   
    30    13    71 1   
    31    13    72 1   
    32    13   115 1   
    33    14    30 ar  
    34    14    32 ar  
    35    14    73 1   
    36    15    31 ar  
    37    15    33 ar  
    38    15    74 1   
    39    16    17 1   
    40    16    28 1   
    41    16    75 1   
    42    17    18 1   
    43    17    37 1   
    44    17    76 1   
    45    18    19 1   
    46    18    77 1   
    47    18    78 1   
    48    19    20 1   
    49    19    79 1   
    50    19    80 1   
    51    20    34 1   
    52    20    81 1   
    53    20    82 1   
    54    21    34 1   
    55    21    35 1   
    56    21    36 1   
    57    21   113 1   
    58    23    24 ar  
    59    24    25 ar  
    60    24    83 1   
    61    25    84 1   
    62    26    27 1   
    63    26    85 1   
    64    27    28 1   
    65    27    86 1   
    66    28    29 2   
    67    30    31 ar  
    68    31    87 1   
    69    32    33 ar  
    70    32    88 1   
    71    33    89 1   
    72    34    90 1   
    73    35    91 1   
    74    35    92 1   
    75    36    93 1   
    76    36   114 1   
    77    37    38 2   
    78    37    39 1   
    79    39    40 1   
    80    39    94 1   
    81    40    41 1   
    82    40    43 1   
    83    40    95 1   
    84    41    42 2   
    85    41    59 1   
    86    43    44 1   
    87    43    96 1   
    88    43    97 1   
    89    44    45 ar  
    90    44    46 ar  
    91    45    47 ar  
    92    45    98 1   
    93    46    48 ar  
    94    46    99 1   
    95    47    49 ar  
    96    47   100 1   
    97    48    49 ar  
    98    48   101 1   
    99    49    50 1   
   100    50   102 1   
   101    51    52 ar  
   102    51    56 ar  
   103    51    57 1   
   104    52    53 ar  
   105    52   103 1   
   106    53    54 ar  
   107    53   104 1   
   108    54    55 ar  
   109    54   105 1   
   110    55    56 ar  
   111    55   106 1   
   112    56   107 1   
   113    57    58 1   
   114    57   108 1   
   115    57   109 1   
   116    58    59 1   
   117    58   110 1   
   118    58   111 1   
   119    59   112 1   
@<TRIPOS>SUBSTRUCTURE
     1 OPT         1 TEMP              0 ****  ****    0 ROOT
