@<TRIPOS>MOLECULE
OPT
  115   119     1     0     0
SMALL
abcg2


@<TRIPOS>ATOM
      1 C1          -4.5880     1.0980    -2.2410 c3         1 OPT      -0.111100
      2 C2          -3.7140     0.6190    -1.0930 c          1 OPT       0.608100
      3 C7          -5.2280     2.4200    -1.9480 ca         1 OPT      -0.066300
      4 C8          -6.4490     2.4910    -1.2860 ca         1 OPT      -0.092500
      5 C9          -7.0300     3.7140    -0.9900 ca         1 OPT      -0.099500
      6 C10         -8.1940     8.6890    -0.4220 ca         1 OPT      -0.109000
      7 C11         -6.8920     7.3000    -1.8950 ca         1 OPT      -0.100000
      8 C12         -7.0210     6.2150    -1.0260 cp         1 OPT      -0.031000
      9 C13         -7.4710     8.5240    -1.5960 ca         1 OPT      -0.112000
     10 C14         -7.7480     6.3940     0.1530 ca         1 OPT      -0.100000
     11 C15         -8.3300     7.6180     0.4510 ca         1 OPT      -0.112000
     12 C20         -2.4320    -2.3760    -0.1880 c3         1 OPT       0.025600
     13 C22         -4.4060    -4.1190     0.6290 c3         1 OPT       0.106900
     14 C24         -6.8350    -4.4710     0.0980 ca         1 OPT      -0.092500
     15 C27         -7.4910    -4.5200     2.7920 ca         1 OPT      -0.110500
     16 N29          0.4450    -1.1470    -0.1780 ns         1 OPT      -0.487900
     17 C30          1.8260    -1.4420    -0.4700 c3         1 OPT       0.031700
     18 C31          2.2080    -2.8660    -0.0410 c3         1 OPT      -0.095400
     19 C32          1.3750    -3.9530    -0.7020 c3         1 OPT      -0.073400
     20 C33          1.8450    -5.3380    -0.2850 c3         1 OPT       0.165800
     21 C35          1.4260    -7.7130    -0.5400 c3         1 OPT       0.627900
     22 O3          -3.8710     1.0020     0.0530 o          1 OPT      -0.580100
     23 C4          -6.4040     4.9100    -1.3430 cp         1 OPT      -0.031000
     24 C5          -5.1790     4.8350    -2.0070 ca         1 OPT      -0.099500
     25 C6          -4.6030     3.6100    -2.3050 ca         1 OPT      -0.092500
     26 N16         -2.7800    -0.2830    -1.4520 ns         1 OPT      -0.501900
     27 C17         -1.9330    -0.9620    -0.5110 c3         1 OPT       0.048700
     28 C18         -0.5260    -1.0900    -1.0970 c          1 OPT       0.596100
     29 O19         -0.3510    -1.1880    -2.3010 o          1 OPT      -0.604100
     30 C23         -5.8280    -4.3330     1.0500 ca         1 OPT      -0.078300
     31 C25         -6.1700    -4.3530     2.4000 ca         1 OPT      -0.092500
     32 C26         -8.1570    -4.6390     0.4870 ca         1 OPT      -0.110500
     33 C28         -8.4890    -4.6630     1.8360 ca         1 OPT      -0.103000
     34 N34          0.9850    -6.3660    -0.8380 n7         1 OPT      -0.859400
     35 N36          0.2940    -8.6030    -0.7580 n8         1 OPT      -1.021200
     36 N37          2.5410    -8.0300    -1.3950 n8         1 OPT      -1.021200
     37 C38          2.7190    -0.4620     0.2830 c          1 OPT       0.598100
     38 O39          2.3320     0.1000     1.2950 o          1 OPT      -0.609100
     39 N40          3.9560    -0.3380    -0.2240 ns         1 OPT      -0.482900
     40 C41          5.0410     0.2970     0.4780 c3         1 OPT       0.029700
     41 C42          5.6880     1.3520    -0.4130 c          1 OPT       0.589100
     42 O43          5.8130     1.1730    -1.6150 o          1 OPT      -0.599100
     43 C44          6.1170    -0.7250     0.8990 c3         1 OPT      -0.039100
     44 C45          5.5340    -1.9490     1.5510 ca         1 OPT      -0.125300
     45 C46          4.7400    -1.8620     2.6940 ca         1 OPT      -0.065500
     46 C47          5.7550    -3.2110     1.0130 ca         1 OPT      -0.065500
     47 C48          4.1750    -2.9880     3.2680 ca         1 OPT      -0.174500
     48 C49          5.2040    -4.3520     1.5790 ca         1 OPT      -0.174500
     49 C50          4.3980    -4.2440     2.7070 ca         1 OPT       0.136100
     50 O51          3.8080    -5.3090     3.2900 oh         1 OPT      -0.535100
     51 C52          8.5050     5.3610    -0.0660 ca         1 OPT      -0.085300
     52 C53          7.9760     6.6470    -0.1480 ca         1 OPT      -0.103000
     53 C54          8.6710     7.6620    -0.7910 ca         1 OPT      -0.108000
     54 C55          9.9090     7.4040    -1.3650 ca         1 OPT      -0.106000
     55 C56         10.4460     6.1250    -1.2900 ca         1 OPT      -0.108000
     56 C57          9.7470     5.1130    -0.6460 ca         1 OPT      -0.103000
     57 C58          7.7360     4.2530     0.5970 c3         1 OPT      -0.048100
     58 C59          6.8840     3.4950    -0.4180 c3         1 OPT       0.102000
     59 N60          6.1560     2.4260     0.2330 ns         1 OPT      -0.503900
     60 H1          -4.0070     1.1400    -3.1650 hc         1 OPT       0.067200
     61 H1A         -5.3530     0.3310    -2.3950 hc         1 OPT       0.067200
     62 H8          -6.9620     1.5780    -1.0080 ha         1 OPT       0.113500
     63 H9          -7.9930     3.7330    -0.4940 ha         1 OPT       0.113500
     64 H10         -8.6480     9.6440    -0.1890 ha         1 OPT       0.111000
     65 H11         -6.3500     7.1860    -2.8260 ha         1 OPT       0.114500
     66 H13         -7.3630     9.3500    -2.2870 ha         1 OPT       0.111500
     67 H14         -7.8470     5.5770     0.8560 ha         1 OPT       0.114500
     68 H15         -8.8860     7.7350     1.3730 ha         1 OPT       0.111500
     69 H20         -2.4220    -2.9910    -1.0910 h1         1 OPT       0.064700
     70 H20A        -1.7720    -2.8420     0.5470 h1         1 OPT       0.064700
     71 H22         -4.2020    -4.5900    -0.3330 h1         1 OPT       0.061700
     72 H22A        -3.7130    -4.5310     1.3640 h1         1 OPT       0.061700
     73 H24         -6.5830    -4.4510    -0.9560 ha         1 OPT       0.114500
     74 H27         -7.7410    -4.5400     3.8450 ha         1 OPT       0.114000
     75 HN29         0.2080    -1.0000     0.7910 hn         1 OPT       0.336500
     76 H30          1.9730    -1.3360    -1.5470 h1         1 OPT       0.099700
     77 H31          3.2630    -3.0250    -0.2730 hc         1 OPT       0.055200
     78 H31A         2.1260    -2.9460     1.0470 hc         1 OPT       0.055200
     79 H32          0.3230    -3.8340    -0.4230 hc         1 OPT       0.051700
     80 H32A         1.4230    -3.8610    -1.7900 hc         1 OPT       0.051700
     81 H33          2.8600    -5.5060    -0.6510 h1         1 OPT       0.034200
     82 H33A         1.9040    -5.3870     0.8160 h1         1 OPT       0.034200
     83 H5          -4.6550     5.7430    -2.2790 ha         1 OPT       0.113500
     84 H6          -3.6490     3.5840    -2.8200 ha         1 OPT       0.113500
     85 HN16        -2.7150    -0.5660    -2.4180 hn         1 OPT       0.331500
     86 H17         -1.9040    -0.3740     0.4080 h1         1 OPT       0.104700
     87 H25         -5.3950    -4.2440     3.1490 ha         1 OPT       0.114500
     88 H26         -8.9280    -4.7520    -0.2640 ha         1 OPT       0.114000
     89 H28         -9.5190    -4.7950     2.1400 ha         1 OPT       0.113000
     90 HN34         0.0470    -6.2350    -0.4750 hn         1 OPT       0.413000
     91 HN36         0.6040    -9.5570    -0.6160 hn         1 OPT       0.404750
     92 HN3A        -0.4140    -8.4430    -0.0500 hn         1 OPT       0.404750
     93 HN37         2.9750    -8.8960    -1.1020 hn         1 OPT       0.404750
     94 HN40         4.1830    -0.8270    -1.0770 hn         1 OPT       0.334500
     95 H41          4.6220     0.7630     1.3700 h1         1 OPT       0.088700
     96 H44          6.6880    -1.0290     0.0180 hc         1 OPT       0.060700
     97 H44A         6.8200    -0.2200     1.5670 hc         1 OPT       0.060700
     98 H46          4.5480    -0.8960     3.1460 ha         1 OPT       0.118500
     99 H47          6.3680    -3.3130     0.1250 ha         1 OPT       0.118500
    100 H48          3.5530    -2.8970     4.1500 ha         1 OPT       0.125000
    101 H49          5.3950    -5.3200     1.1310 ha         1 OPT       0.125000
    102 HO51         4.0520    -6.1210     2.8320 ho         1 OPT       0.464000
    103 H53          7.0110     6.8570     0.2990 ha         1 OPT       0.111500
    104 H54          8.2480     8.6570    -0.8400 ha         1 OPT       0.114000
    105 H55         10.4540     8.1950    -1.8650 ha         1 OPT       0.114000
    106 H56         11.4120     5.9140    -1.7320 ha         1 OPT       0.114000
    107 H57         10.1730     4.1180    -0.5890 ha         1 OPT       0.111500
    108 H58          8.4230     3.5550     1.0820 hc         1 OPT       0.050200
    109 H58A         7.0920     4.6650     1.3790 hc         1 OPT       0.050200
    110 H59          6.1960     4.1860    -0.9140 h1         1 OPT       0.059700
    111 H59A         7.5220     3.0670    -1.1920 h1         1 OPT       0.059700
    112 HN60         5.9210     2.5450     1.2060 hn         1 OPT       0.315500
    113 H541         1.8070    -7.7840     0.4960 h3         1 OPT      -0.005300
    114 H551         2.2050    -8.1700    -2.3410 hn         1 OPT       0.404750
    115 SG2         -4.1210    -2.3250     0.4700 ss         1 OPT      -0.393000
@<TRIPOS>BOND
     1     1     2 1   
     2     1     3 1   
     3     1    60 1   
     4     1    61 1   
     5     2    22 2   
     6     2    26 1   
     7     3     4 ar  
     8     3    25 ar  
     9     4     5 ar  
    10     4    62 1   
    11     5    23 ar  
    12     5    63 1   
    13     6     9 ar  
    14     6    11 ar  
    15     6    64 1   
    16     7     8 ar  
    17     7     9 ar  
    18     7    65 1   
    19     8    10 ar  
    20     8    23 1   
    21     9    66 1   
    22    10    11 ar  
    23    10    67 1   
    24    11    68 1   
    25    12    27 1   
    26    12    69 1   
    27    12    70 1   
    28    12   115 1   
    29    13    30 1   
    30    13    71 1   
    31    13    72 1   
    32    13   115 1   
    33    14    30 ar  
    34    14    32 ar  
    35    14    73 1   
    36    15    31 ar  
    37    15    33 ar  
    38    15    74 1   
    39    16    17 1   
    40    16    28 1   
    41    16    75 1   
    42    17    18 1   
    43    17    37 1   
    44    17    76 1   
    45    18    19 1   
    46    18    77 1   
    47    18    78 1   
    48    19    20 1   
    49    19    79 1   
    50    19    80 1   
    51    20    34 1   
    52    20    81 1   
    53    20    82 1   
    54    21    34 1   
    55    21    35 1   
    56    21    36 1   
    57    21   113 1   
    58    23    24 ar  
    59    24    25 ar  
    60    24    83 1   
    61    25    84 1   
    62    26    27 1   
    63    26    85 1   
    64    27    28 1   
    65    27    86 1   
    66    28    29 2   
    67    30    31 ar  
    68    31    87 1   
    69    32    33 ar  
    70    32    88 1   
    71    33    89 1   
    72    34    90 1   
    73    35    91 1   
    74    35    92 1   
    75    36    93 1   
    76    36   114 1   
    77    37    38 2   
    78    37    39 1   
    79    39    40 1   
    80    39    94 1   
    81    40    41 1   
    82    40    43 1   
    83    40    95 1   
    84    41    42 2   
    85    41    59 1   
    86    43    44 1   
    87    43    96 1   
    88    43    97 1   
    89    44    45 ar  
    90    44    46 ar  
    91    45    47 ar  
    92    45    98 1   
    93    46    48 ar  
    94    46    99 1   
    95    47    49 ar  
    96    47   100 1   
    97    48    49 ar  
    98    48   101 1   
    99    49    50 1   
   100    50   102 1   
   101    51    52 ar  
   102    51    56 ar  
   103    51    57 1   
   104    52    53 ar  
   105    52   103 1   
   106    53    54 ar  
   107    53   104 1   
   108    54    55 ar  
   109    54   105 1   
   110    55    56 ar  
   111    55   106 1   
   112    56   107 1   
   113    57    58 1   
   114    57   108 1   
   115    57   109 1   
   116    58    59 1   
   117    58   110 1   
   118    58   111 1   
   119    59   112 1   
@<TRIPOS>SUBSTRUCTURE
     1 OPT         1 TEMP              0 ****  ****    0 ROOT
