@<TRIPOS>MOLECULE
OPU
   39    42     1     0     0
SMALL
No Charge or Current Charge


@<TRIPOS>ATOM
      1 N1           7.4940     1.1160    17.6410 nc         1 OPU      -0.347700
      2 N3           7.3740     0.6270    22.0290 ns         1 OPU      -0.424100
      3 C4           6.2000     1.4190    17.5330 cd         1 OPU       0.326700
      4 C5           6.6740     1.1230    19.6820 cd         1 OPU      -0.096000
      5 C6           6.4080     0.9640    21.0870 cd         1 OPU       0.082600
      6 C7           8.7110     0.9800    22.0960 c          1 OPU       0.610100
      7 C8           9.5000     0.2980    23.2450 c6         1 OPU      -0.077400
      8 C10         10.4170     0.6330    25.5850 c6         1 OPU       0.162600
      9 C13         13.6350    -0.6360    22.1880 ca         1 OPU      -0.065000
     10 C15         11.2660    -0.6170    21.6230 ca         1 OPU      -0.052000
     11 C14         12.5970    -0.9070    21.2820 ca         1 OPU       0.095000
     12 C12         13.3370    -0.0850    23.4470 ca         1 OPU      -0.137000
     13 C16         10.9580    -0.0440    22.8770 ca         1 OPU      -0.149300
     14 C11         12.0070     0.1950    23.7990 ca         1 OPU       0.147100
     15 O1          11.7550     0.7090    25.0530 os         1 OPU      -0.346100
     16 C9           9.3970     1.1340    24.5470 c6         1 OPU      -0.107400
     17 O            9.2480     1.7540    21.3160 o          1 OPU      -0.554100
     18 C1           5.0780     1.0690    21.4740 cc         1 OPU      -0.067300
     19 C            4.6080     0.8990    22.9020 c3         1 OPU      -0.046800
     20 N2           7.7900     0.9210    18.9970 nc         1 OPU      -0.083000
     21 N            5.7040     1.4620    18.8010 na         1 OPU       0.002200
     22 C3           4.3470     1.5220    19.1140 cd         1 OPU      -0.086000
     23 C2           4.0730     1.3430    20.4640 cc         1 OPU      -0.141000
     24 H1           7.0630     0.1190    22.8470 hn         1 OPU       0.326500
     25 H2           5.6160     1.5980    16.6390 h5         1 OPU       0.077800
     26 H3           8.9700    -0.6360    23.4780 hc         1 OPU       0.054700
     27 H4          10.1990    -0.4120    25.8490 h1         1 OPU       0.057200
     28 H5          10.3610     1.2360    26.5020 h1         1 OPU       0.057200
     29 H6          14.6650    -0.8590    21.9190 ha         1 OPU       0.131000
     30 H7          10.4780    -0.8320    20.9050 ha         1 OPU       0.146000
     31 H8          14.1360     0.1140    24.1560 ha         1 OPU       0.131000
     32 H9           9.6030     2.1920    24.3320 hc         1 OPU       0.071700
     33 H10          8.3800     1.0890    24.9610 hc         1 OPU       0.071700
     34 H11          4.7050    -0.1450    23.2220 hc         1 OPU       0.050033
     35 H12          5.1970     1.5210    23.5870 hc         1 OPU       0.050033
     36 H13          3.5580     1.1870    23.0260 hc         1 OPU       0.050033
     37 H14          3.6250     1.7080    18.3270 h4         1 OPU       0.150000
     38 H15          3.0370     1.4000    20.7850 ha         1 OPU       0.134000
     39 Cl          12.9670    -1.6090    19.7120 cl         1 OPU      -0.204000
@<TRIPOS>BOND
     1     1     3 2   
     2     1    20 1   
     3     2     5 1   
     4     2     6 1   
     5     2    24 1   
     6     3    21 1   
     7     3    25 1   
     8     4     5 1   
     9     4    20 2   
    10     4    21 1   
    11     5    18 2   
    12     6     7 1   
    13     6    17 2   
    14     7    13 1   
    15     7    16 1   
    16     7    26 1   
    17     8    15 1   
    18     8    16 1   
    19     8    27 1   
    20     8    28 1   
    21     9    11 ar  
    22     9    12 ar  
    23     9    29 1   
    24    10    11 ar  
    25    10    13 ar  
    26    10    30 1   
    27    11    39 1   
    28    12    14 ar  
    29    12    31 1   
    30    13    14 ar  
    31    14    15 1   
    32    16    32 1   
    33    16    33 1   
    34    18    19 1   
    35    18    23 1   
    36    19    34 1   
    37    19    35 1   
    38    19    36 1   
    39    21    22 1   
    40    22    23 2   
    41    22    37 1   
    42    23    38 1   
@<TRIPOS>SUBSTRUCTURE
     1 OPU         1 TEMP              0 ****  ****    0 ROOT
