@<TRIPOS>MOLECULE
OPU
   39    42     1     0     0
SMALL
abcg2


@<TRIPOS>ATOM
      1 N1           7.9810     0.8950    17.8810 nc         1 OPU      -0.347700
      2 N3           7.3890     0.2970    22.1020 ns         1 OPU      -0.424100
      3 C4           6.7470     1.2530    17.6360 cd         1 OPU       0.326700
      4 C5           6.9230     0.8400    19.7740 cd         1 OPU      -0.096000
      5 C6           6.4660     0.7120    21.1140 cd         1 OPU       0.082600
      6 C7           8.4290     1.0640    22.5190 c          1 OPU       0.610100
      7 C8           9.3340     0.4060    23.5560 c6         1 OPU      -0.077400
      8 C10         10.6450     0.7910    25.6330 c6         1 OPU       0.162600
      9 C13         13.1630    -0.5890    21.7990 ca         1 OPU      -0.065000
     10 C15         10.7550    -0.4810    21.6510 ca         1 OPU      -0.052000
     11 C14         11.9830    -0.7940    21.0950 ca         1 OPU       0.095000
     12 C12         13.0940    -0.0720    23.0820 ca         1 OPU      -0.137000
     13 C16         10.6750     0.0450    22.9400 ca         1 OPU      -0.149300
     14 C11         11.8610     0.2390    23.6580 ca         1 OPU       0.147100
     15 O1          11.8960     0.7440    24.9220 os         1 OPU      -0.346100
     16 C9           9.5370     1.3330    24.7580 c6         1 OPU      -0.107400
     17 O            8.6320     2.1930    22.0930 o          1 OPU      -0.554100
     18 C1           5.1480     0.9580    21.4030 cc         1 OPU      -0.067300
     19 C            4.6060     0.8150    22.7940 c3         1 OPU      -0.046800
     20 N2           8.1100     0.6300    19.2240 nc         1 OPU      -0.083000
     21 N            6.0220     1.2360    18.7990 na         1 OPU       0.002200
     22 C3           4.7010     1.4900    19.0700 cd         1 OPU      -0.086000
     23 C2           4.2680     1.3480    20.3440 cc         1 OPU      -0.141000
     24 H1           7.2260    -0.5870    22.5610 hn         1 OPU       0.326500
     25 H2           6.3300     1.5240    16.6800 h5         1 OPU       0.077800
     26 H3           8.8570    -0.5140    23.9050 hc         1 OPU       0.054700
     27 H4          10.4090    -0.2170    25.9860 h1         1 OPU       0.057200
     28 H5          10.8280     1.4320    26.4920 h1         1 OPU       0.057200
     29 H6          14.1190    -0.8320    21.3560 ha         1 OPU       0.131000
     30 H7           9.8530    -0.6300    21.0720 ha         1 OPU       0.146000
     31 H8          13.9950     0.0940    23.6570 ha         1 OPU       0.131000
     32 H9           9.7990     2.3340    24.4110 hc         1 OPU       0.071700
     33 H10          8.6160     1.4060    25.3380 hc         1 OPU       0.071700
     34 H11          4.2730    -0.2120    22.9690 hc         1 OPU       0.050033
     35 H12          5.3630     1.0470    23.5420 hc         1 OPU       0.050033
     36 H13          3.7470     1.4690    22.9390 hc         1 OPU       0.050033
     37 H14          4.0820     1.7890    18.2380 h4         1 OPU       0.150000
     38 H15          3.2300     1.5470    20.5690 ha         1 OPU       0.134000
     39 CL          12.0490    -1.4510    19.4690 cl         1 OPU      -0.204000
@<TRIPOS>BOND
     1     1     3 2   
     2     1    20 1   
     3     2     5 1   
     4     2     6 1   
     5     2    24 1   
     6     3    21 1   
     7     3    25 1   
     8     4     5 1   
     9     4    20 2   
    10     4    21 1   
    11     5    18 2   
    12     6     7 1   
    13     6    17 2   
    14     7    13 1   
    15     7    16 1   
    16     7    26 1   
    17     8    15 1   
    18     8    16 1   
    19     8    27 1   
    20     8    28 1   
    21     9    11 ar  
    22     9    12 ar  
    23     9    29 1   
    24    10    11 ar  
    25    10    13 ar  
    26    10    30 1   
    27    11    39 1   
    28    12    14 ar  
    29    12    31 1   
    30    13    14 ar  
    31    14    15 1   
    32    16    32 1   
    33    16    33 1   
    34    18    19 1   
    35    18    23 1   
    36    19    34 1   
    37    19    35 1   
    38    19    36 1   
    39    21    22 1   
    40    22    23 2   
    41    22    37 1   
    42    23    38 1   
@<TRIPOS>SUBSTRUCTURE
     1 OPU         1 TEMP              0 ****  ****    0 ROOT
