@<TRIPOS>MOLECULE
OPV
   43    45     1     0     0
SMALL
No Charge or Current Charge


@<TRIPOS>ATOM
      1 CAJ          6.4960     0.8980     0.3540 cc         1 OPV      -0.221000
      2 NAM          7.5280     1.1440    -0.5310 na         1 OPV      -0.300500
      3 CAI          7.2030     0.5630    -1.7330 cc         1 OPV       0.390400
      4 NAO          6.0220    -0.0330    -1.6520 nd         1 OPV      -0.674000
      5 CAT          5.5800     0.1730    -0.3620 cd         1 OPV       0.237300
      6 CAK          4.2610    -0.3620     0.1190 c3         1 OPV      -0.113700
      7 CAL          3.0680     0.4130    -0.4710 c3         1 OPV       0.127000
      8 NAY          1.7710    -0.0790     0.0250 n          1 OPV      -0.285300
      9 C            1.0120     0.5220     1.0270 c          1 OPV       0.541000
     10 O            1.2500     1.5890     1.5790 o          1 OPV      -0.530000
     11 OG1          1.3130    -1.3160    -0.4670 os         1 OPV      -0.230100
     12 CB           0.4080    -1.7980     0.5580 c5         1 OPV       0.118300
     13 CG2          1.1910    -2.7420     1.4980 c3         1 OPV      -0.113100
     14 CA          -0.1160    -0.4970     1.2710 c5         1 OPV       0.016700
     15 N           -1.3020    -0.0420     0.4950 ns         1 OPV      -0.499900
     16 CAQ         -2.5330    -0.6170     0.7590 c          1 OPV       0.626700
     17 OAB         -2.6570    -1.4810     1.6180 o          1 OPV      -0.577100
     18 CAV         -3.6710    -0.1460    -0.1260 ca         1 OPV      -0.166600
     19 CAH         -3.3990     0.4160    -1.4010 ca         1 OPV      -0.085000
     20 CAF         -4.4410     0.8500    -2.2390 ca         1 OPV      -0.117000
     21 CAG         -5.7760     0.7340    -1.8270 ca         1 OPV      -0.141000
     22 CAS         -6.0690     0.1810    -0.5720 ca         1 OPV       0.035100
     23 OAD         -7.3740     0.0730    -0.1620 oh         1 OPV      -0.556100
     24 CAU         -5.0270    -0.2580     0.2740 ca         1 OPV       0.174100
     25 OAE         -5.3890    -0.7530     1.4930 oh         1 OPV      -0.508100
     26 H1           6.4860     1.2420     1.3820 h4         1 OPV       0.160000
     27 H2           8.3820     1.6580    -0.3470 hn         1 OPV       0.353000
     28 H3           7.8500     0.6100    -2.6020 h5         1 OPV       0.055100
     29 H5           4.1700    -1.4220    -0.1460 hc         1 OPV       0.058700
     30 H6           4.2150    -0.3070     1.2130 hc         1 OPV       0.058700
     31 H7           3.1700     1.4780    -0.2270 h1         1 OPV       0.074700
     32 H8           3.0810     0.3210    -1.5650 h1         1 OPV       0.074700
     33 H9          -0.3990    -2.3750     0.0860 h1         1 OPV       0.098700
     34 H10          2.0350    -2.2280     1.9740 hc         1 OPV       0.051033
     35 H11          0.5410    -3.1270     2.2930 hc         1 OPV       0.051033
     36 H12          1.5860    -3.6020     0.9460 hc         1 OPV       0.051033
     37 H13         -0.2930    -0.6190     2.3480 h1         1 OPV       0.110700
     38 H14         -1.2710     0.6800    -0.2160 hn         1 OPV       0.332500
     39 H15         -2.3800     0.5030    -1.7720 ha         1 OPV       0.123000
     40 H16         -4.2100     1.2730    -3.2150 ha         1 OPV       0.121000
     41 H17         -6.5730     1.0740    -2.4850 ha         1 OPV       0.116000
     42 H18         -7.9620     0.4250    -0.8690 ho         1 OPV       0.478000
     43 H19         -6.3710    -0.7080     1.5100 ho         1 OPV       0.485000
@<TRIPOS>BOND
     1     1     2 1   
     2     1     5 2   
     3     1    26 1   
     4     2     3 1   
     5     2    27 1   
     6     3     4 2   
     7     3    28 1   
     8     4     5 1   
     9     5     6 1   
    10     6     7 1   
    11     6    29 1   
    12     6    30 1   
    13     7     8 1   
    14     7    31 1   
    15     7    32 1   
    16     8     9 1   
    17     8    11 1   
    18     9    10 2   
    19     9    14 1   
    20    11    12 1   
    21    12    13 1   
    22    12    14 1   
    23    12    33 1   
    24    13    34 1   
    25    13    35 1   
    26    13    36 1   
    27    14    15 1   
    28    14    37 1   
    29    15    16 1   
    30    15    38 1   
    31    16    17 2   
    32    16    18 1   
    33    18    19 ar  
    34    18    24 ar  
    35    19    20 ar  
    36    19    39 1   
    37    20    21 ar  
    38    20    40 1   
    39    21    22 ar  
    40    21    41 1   
    41    22    23 1   
    42    22    24 ar  
    43    23    42 1   
    44    24    25 1   
    45    25    43 1   
@<TRIPOS>SUBSTRUCTURE
     1 OPV         1 TEMP              0 ****  ****    0 ROOT
