@<TRIPOS>MOLECULE
OPV
   43    45     1     0     0
SMALL
bcc


@<TRIPOS>ATOM
      1 CAJ          6.4470     0.9780     0.5050 cc         1 OPV      -0.253600
      2 NAM          7.4570     1.2550    -0.3710 na         1 OPV      -0.300900
      3 CAI          7.1330     0.6970    -1.5520 cc         1 OPV       0.390400
      4 NAO          5.9810     0.0790    -1.4910 nd         1 OPV      -0.674000
      5 CAT          5.5380     0.2440    -0.2060 cd         1 OPV       0.302600
      6 CAK          4.2270    -0.2950     0.2530 c3         1 OPV      -0.113700
      7 CAL          3.0660     0.4330    -0.4270 c3         1 OPV       0.127000
      8 NAY          1.7840    -0.0870    -0.0390 n          1 OPV      -0.352300
      9 C            0.9180     0.3790     0.8640 c          1 OPV       0.683500
     10 O            0.9890     1.4420     1.4540 o          1 OPV      -0.605500
     11 OG1          1.4360    -1.3120    -0.5750 os         1 OPV      -0.206900
     12 CB           0.5130    -1.8940     0.3620 c5         1 OPV       0.095100
     13 CG2          1.2420    -2.7440     1.3810 c3         1 OPV      -0.113100
     14 CA          -0.1720    -0.6820     0.9950 c5         1 OPV       0.016700
     15 N           -1.3670    -0.2310     0.3270 ns         1 OPV      -0.566900
     16 CAQ         -2.5520    -0.8400     0.5360 c          1 OPV       0.693700
     17 OAB         -2.6750    -1.7770     1.3070 o          1 OPV      -0.577100
     18 CAV         -3.6830    -0.2910    -0.2680 ca         1 OPV      -0.166600
     19 CAH         -3.5390    -0.1080    -1.6450 ca         1 OPV      -0.103000
     20 CAF         -4.5960     0.3560    -2.4040 ca         1 OPV      -0.135000
     21 CAG         -5.8090     0.6550    -1.7920 ca         1 OPV      -0.159000
     22 CAS         -5.9610     0.4840    -0.4270 ca         1 OPV       0.035100
     23 OAD         -7.0970     0.7550     0.2510 oh         1 OPV      -0.517100
     24 CAU         -4.8960     0.0010     0.3490 ca         1 OPV       0.174100
     25 OAE         -5.0240    -0.1520     1.6780 oh         1 OPV      -0.469100
     26 H1           6.4590     1.3130     1.5280 h4         1 OPV       0.178000
     27 H2           8.2940     1.7770    -0.1700 hn         1 OPV       0.302700
     28 H3           7.7700     0.7700    -2.4200 h5         1 OPV       0.055100
     29 H5           4.1610    -1.3640     0.0340 hc         1 OPV       0.058700
     30 H6           4.1390    -0.1820     1.3350 hc         1 OPV       0.058700
     31 H7           3.0700     1.4890    -0.1630 h1         1 OPV       0.074700
     32 H8           3.1540     0.3720    -1.5140 h1         1 OPV       0.074700
     33 H9          -0.1740    -2.4990    -0.2290 h1         1 OPV       0.098700
     34 H10          1.8990    -2.1500     2.0190 hc         1 OPV       0.051033
     35 H11          0.5180    -3.2450     2.0230 hc         1 OPV       0.051033
     36 H12          1.8410    -3.5090     0.8890 hc         1 OPV       0.051033
     37 H13         -0.3860    -0.8580     2.0510 h1         1 OPV       0.110700
     38 H14         -1.3260     0.5680    -0.2860 hn         1 OPV       0.332500
     39 H15         -2.5990    -0.3540    -2.1240 ha         1 OPV       0.141000
     40 H16         -4.4870     0.4850    -3.4710 ha         1 OPV       0.139000
     41 H17         -6.6410     1.0240    -2.3810 ha         1 OPV       0.134000
     42 H18         -7.7600     1.1510    -0.3250 ho         1 OPV       0.439000
     43 H19         -5.8850     0.1720     1.9700 ho         1 OPV       0.446000
@<TRIPOS>BOND
     1     1     2 1   
     2     1     5 2   
     3     1    26 1   
     4     2     3 1   
     5     2    27 1   
     6     3     4 2   
     7     3    28 1   
     8     4     5 1   
     9     5     6 1   
    10     6     7 1   
    11     6    29 1   
    12     6    30 1   
    13     7     8 1   
    14     7    31 1   
    15     7    32 1   
    16     8     9 1   
    17     8    11 1   
    18     9    10 2   
    19     9    14 1   
    20    11    12 1   
    21    12    13 1   
    22    12    14 1   
    23    12    33 1   
    24    13    34 1   
    25    13    35 1   
    26    13    36 1   
    27    14    15 1   
    28    14    37 1   
    29    15    16 1   
    30    15    38 1   
    31    16    17 2   
    32    16    18 1   
    33    18    19 ar  
    34    18    24 ar  
    35    19    20 ar  
    36    19    39 1   
    37    20    21 ar  
    38    20    40 1   
    39    21    22 ar  
    40    21    41 1   
    41    22    23 1   
    42    22    24 ar  
    43    23    42 1   
    44    24    25 1   
    45    25    43 1   
@<TRIPOS>SUBSTRUCTURE
     1 OPV         1 TEMP              0 ****  ****    0 ROOT
