@<TRIPOS>MOLECULE
OPW
   34    36     1     0     0
SMALL
abcg2


@<TRIPOS>ATOM
      1 CAA         -9.7140    16.6660    49.0370 c3         1 OPW       0.145900
      2 CAC         -8.3850    15.1010    47.8530 ca         1 OPW       0.146100
      3 CAD         -8.1020    13.7430    47.6010 ca         1 OPW      -0.127000
      4 CAE         -7.0970    13.3710    46.7370 ca         1 OPW      -0.037000
      5 CAF         -6.3590    14.3720    46.1110 ca         1 OPW      -0.223000
      6 CAH         -4.9710    15.9840    44.9320 cc         1 OPW       0.442800
      7 CAJ         -6.6330    15.7240    46.3500 ca         1 OPW       0.134400
      8 CAK         -7.6530    16.0980    47.2300 ca         1 OPW      -0.157000
      9 CAL         -3.9960    16.6780    44.0950 ca         1 OPW      -0.148900
     10 CAM         -2.9540    16.0090    43.4580 ca         1 OPW       0.338900
     11 CAO         -2.1460    17.9340    42.5540 ca         1 OPW       0.319900
     12 CAP         -3.1510    18.7040    43.1400 ca         1 OPW      -0.082000
     13 CAR         -4.1940    20.8990    42.5810 c          1 OPW       0.613100
     14 CAS         -5.5400    20.2690    42.3420 c3         1 OPW      -0.179100
     15 CAU         -4.0760    18.0610    43.9460 ca         1 OPW      -0.063000
     16 NAI         -5.8340    16.6010    45.6670 nd         1 OPW      -0.544100
     17 NAN         -2.0470    16.6260    42.7170 nb         1 OPW      -0.645000
     18 NAQ         -3.1540    20.0880    42.9350 ns         1 OPW      -0.168000
     19 OAB         -9.3890    15.3280    48.7180 os         1 OPW      -0.338100
     20 OAT         -4.0140    22.0970    42.4580 o          1 OPW      -0.583100
     21 SAG         -5.0510    14.2410    44.9900 ss         1 OPW       0.054800
     22 H1         -10.5260    16.6220    49.7580 h1         1 OPW       0.044367
     23 H2          -8.8700    17.1940    49.4870 h1         1 OPW       0.044367
     24 H3         -10.0520    17.2240    48.1600 h1         1 OPW       0.044367
     25 H4          -8.6910    12.9850    48.1000 ha         1 OPW       0.132000
     26 H5          -6.8940    12.3240    46.5560 ha         1 OPW       0.128000
     27 H6          -7.8390    17.1500    47.3960 ha         1 OPW       0.137000
     28 H7          -2.8380    14.9340    43.5540 h4         1 OPW       0.029100
     29 H8          -1.3960    18.4130    41.9320 h4         1 OPW       0.028100
     30 H9          -6.0990    20.8980    41.6540 hc         1 OPW       0.067033
     31 H10         -5.4850    19.2610    41.9350 hc         1 OPW       0.067033
     32 H11         -6.1060    20.2220    43.2750 hc         1 OPW       0.067033
     33 H12         -4.8480    18.6130    44.4640 ha         1 OPW       0.150000
     34 H13         -2.2520    20.5460    42.9610 hn         1 OPW       0.160000
@<TRIPOS>BOND
     1     1    19 1   
     2     1    22 1   
     3     1    23 1   
     4     1    24 1   
     5     2     3 ar  
     6     2     8 ar  
     7     2    19 1   
     8     3     4 ar  
     9     3    25 1   
    10     4     5 ar  
    11     4    26 1   
    12     5     7 ar  
    13     5    21 1   
    14     6     9 1   
    15     6    16 2   
    16     6    21 1   
    17     7     8 ar  
    18     7    16 1   
    19     8    27 1   
    20     9    10 ar  
    21     9    15 ar  
    22    10    17 ar  
    23    10    28 1   
    24    11    12 ar  
    25    11    17 ar  
    26    11    29 1   
    27    12    15 ar  
    28    12    18 1   
    29    13    14 1   
    30    13    18 1   
    31    13    20 2   
    32    14    30 1   
    33    14    31 1   
    34    14    32 1   
    35    15    33 1   
    36    18    34 1   
@<TRIPOS>SUBSTRUCTURE
     1 OPW         1 TEMP              0 ****  ****    0 ROOT
