@<TRIPOS>MOLECULE
OPW
   34    36     1     0     0
SMALL
No Charge or Current Charge


@<TRIPOS>ATOM
      1 CAA         -9.9600    16.6710    48.8950 c3         1 OPW       0.145900
      2 CAC         -8.3820    15.0550    47.8970 ca         1 OPW       0.146100
      3 CAD         -7.9640    13.7120    47.7970 ca         1 OPW      -0.127000
      4 CAE         -6.8780    13.3640    46.9730 ca         1 OPW      -0.037000
      5 CAF         -6.2290    14.3820    46.2610 ca         1 OPW      -0.223000
      6 CAH         -4.9450    15.9370    44.9320 cc         1 OPW       0.442800
      7 CAJ         -6.6240    15.6990    46.3460 ca         1 OPW       0.134400
      8 CAK         -7.7040    16.0580    47.1640 ca         1 OPW      -0.157000
      9 CAL         -4.0020    16.6240    44.0380 ca         1 OPW      -0.148900
     10 CAM         -3.0120    15.9030    43.3370 ca         1 OPW       0.338900
     11 CAO         -2.1700    17.8220    42.3490 ca         1 OPW       0.319900
     12 CAP         -3.1310    18.6370    42.9780 ca         1 OPW      -0.082000
     13 CAR         -4.1130    20.9950    42.7320 c          1 OPW       0.613100
     14 CAS         -5.5530    20.5170    42.5260 c3         1 OPW      -0.179100
     15 CAU         -4.0520    18.0260    43.8530 ca         1 OPW      -0.063000
     16 NAI         -5.9010    16.6120    45.5920 nd         1 OPW      -0.544100
     17 NAN         -2.1100    16.4820    42.5140 nb         1 OPW      -0.645000
     18 NAQ         -3.1040    20.0420    42.7500 ns         1 OPW      -0.168000
     19 OAB         -9.4530    15.3350    48.7220 os         1 OPW      -0.338100
     20 OAT         -3.8480    22.1900    42.7860 o          1 OPW      -0.583100
     21 SAG         -4.8620    14.1710    45.1830 ss         1 OPW       0.054800
     22 H1         -10.8090    16.6680    49.5890 h1         1 OPW       0.044367
     23 H2          -9.1860    17.3310    49.3080 h1         1 OPW       0.044367
     24 H3         -10.3040    17.0850    47.9390 h1         1 OPW       0.044367
     25 H4          -8.4850    12.9430    48.3600 ha         1 OPW       0.132000
     26 H5          -6.5520    12.3280    46.8920 ha         1 OPW       0.128000
     27 H6          -7.9990    17.1010    47.2170 ha         1 OPW       0.137000
     28 H7          -2.9190    14.8220    43.4330 h4         1 OPW       0.029100
     29 H8          -1.4270    18.2570    41.6800 h4         1 OPW       0.028100
     30 H9          -6.1630    21.2840    42.0340 hc         1 OPW       0.067033
     31 H10         -5.5800    19.5620    41.9900 hc         1 OPW       0.067033
     32 H11         -5.9910    20.3060    43.5070 hc         1 OPW       0.067033
     33 H12         -4.7760    18.6240    44.4000 ha         1 OPW       0.150000
     34 H13         -2.1720    20.4340    42.7080 hn         1 OPW       0.160000
@<TRIPOS>BOND
     1     1    19 1   
     2     1    22 1   
     3     1    23 1   
     4     1    24 1   
     5     2     3 ar  
     6     2     8 ar  
     7     2    19 1   
     8     3     4 ar  
     9     3    25 1   
    10     4     5 ar  
    11     4    26 1   
    12     5     7 ar  
    13     5    21 1   
    14     6     9 1   
    15     6    16 2   
    16     6    21 1   
    17     7     8 ar  
    18     7    16 1   
    19     8    27 1   
    20     9    10 ar  
    21     9    15 ar  
    22    10    17 ar  
    23    10    28 1   
    24    11    12 ar  
    25    11    17 ar  
    26    11    29 1   
    27    12    15 ar  
    28    12    18 1   
    29    13    14 1   
    30    13    18 1   
    31    13    20 2   
    32    14    30 1   
    33    14    31 1   
    34    14    32 1   
    35    15    33 1   
    36    18    34 1   
@<TRIPOS>SUBSTRUCTURE
     1 OPW         1 TEMP              0 ****  ****    0 ROOT
