@<TRIPOS>MOLECULE
OPX
   41    42     1     0     0
SMALL
No Charge or Current Charge


@<TRIPOS>ATOM
      1 CAF         -5.5110     0.3190    -0.2140 c6         1 OPX      -0.072400
      2 CAG         -4.8720     1.2310     0.8610 c6         1 OPX      -0.071900
      3 CAH         -4.6130     0.2250    -1.4700 c6         1 OPX      -0.071900
      4 CAI         -3.4440     0.7510     1.2250 c6         1 OPX      -0.077900
      5 CAJ         -3.1830    -0.2500    -1.1080 c6         1 OPX      -0.077900
      6 CAK         -0.1180     0.3010    -0.6430 c3         1 OPX       0.205800
      7 CAL          2.4230     0.3710    -1.1140 c5         1 OPX      -0.030900
      8 CAM          1.7170     0.6340     1.2660 c5         1 OPX      -0.030900
      9 CAO          3.5570     0.9490    -0.2180 c5         1 OPX       0.123800
     10 CAP          2.7380     1.7320     0.8540 c5         1 OPX       0.123800
     11 CAQ         -2.5340     0.6650    -0.0290 c6         1 OPX       0.191500
     12 CAR          1.2890    -0.0600    -0.0960 c5         1 OPX      -0.308000
     13 NAN         -1.1900     0.1980     0.3600 n7         1 OPX      -0.857400
     14 OAC          4.4480     1.8010    -0.9510 oh         1 OPX      -0.667500
     15 OAD          2.1090     2.9030     0.3180 oh         1 OPX      -0.667500
     16 SAS          1.4370    -1.9510     0.1250 s6         1 OPX       1.319600
     17 H1          -5.6730    -0.6860     0.2020 hc         1 OPX       0.029200
     18 H2          -6.5010     0.7060    -0.4910 hc         1 OPX       0.029200
     19 H3          -4.8310     2.2650     0.4930 hc         1 OPX       0.027450
     20 H4          -5.5010     1.2440     1.7610 hc         1 OPX       0.027450
     21 H5          -5.0610    -0.4650    -2.1980 hc         1 OPX       0.027450
     22 H6          -4.5610     1.2070    -1.9610 hc         1 OPX       0.027450
     23 H7          -3.0050     1.4380     1.9600 hc         1 OPX       0.050700
     24 H8          -3.5020    -0.2330     1.7120 hc         1 OPX       0.050700
     25 H9          -3.2190    -1.2850    -0.7430 hc         1 OPX       0.050700
     26 H10         -2.5700    -0.2600    -2.0180 hc         1 OPX       0.050700
     27 H11         -0.0790     1.3400    -0.9990 h1         1 OPX       0.029700
     28 H12         -0.3380    -0.3230    -1.5190 h1         1 OPX       0.029700
     29 H13          2.0610     1.1390    -1.8090 hc         1 OPX       0.054200
     30 H14          2.7820    -0.4470    -1.7480 hc         1 OPX       0.054200
     31 H15          2.2000    -0.0700     1.9540 hc         1 OPX       0.054200
     32 H16          0.8770     1.0590     1.8260 hc         1 OPX       0.054200
     33 H17          4.1240     0.1360     0.2570 h1         1 OPX       0.045700
     34 H18          3.3720     2.0090     1.7080 h1         1 OPX       0.045700
     35 H19         -2.4360     1.6790    -0.4440 h1         1 OPX       0.002700
     36 H20         -0.8890     0.7530     1.1650 hn         1 OPX       0.428000
     37 H22          5.2190     1.9780    -0.3680 ho         1 OPX       0.433000
     38 H23          2.6460     3.1330    -0.4720 ho         1 OPX       0.433000
     39 OAA          1.0000    -2.5200    -1.1600 o          1 OPX      -0.688200
     40 OAB          2.8620    -2.1870     0.4080 o          1 OPX      -0.688200
     41 OAE          0.5620    -2.2940     1.2560 o          1 OPX      -0.688200
@<TRIPOS>BOND
     1     1     2 1   
     2     1     3 1   
     3     1    17 1   
     4     1    18 1   
     5     2     4 1   
     6     2    19 1   
     7     2    20 1   
     8     3     5 1   
     9     3    21 1   
    10     3    22 1   
    11     4    11 1   
    12     4    23 1   
    13     4    24 1   
    14     5    11 1   
    15     5    25 1   
    16     5    26 1   
    17     6    12 1   
    18     6    13 1   
    19     6    27 1   
    20     6    28 1   
    21     7     9 1   
    22     7    12 1   
    23     7    29 1   
    24     7    30 1   
    25     8    10 1   
    26     8    12 1   
    27     8    31 1   
    28     8    32 1   
    29     9    10 1   
    30     9    14 1   
    31     9    33 1   
    32    10    15 1   
    33    10    34 1   
    34    11    13 1   
    35    11    35 1   
    36    12    16 1   
    37    13    36 1   
    38    14    37 1   
    39    15    38 1   
    40    16    39 1   
    41    16    40 1   
    42    16    41 1   
@<TRIPOS>SUBSTRUCTURE
     1 OPX         1 TEMP              0 ****  ****    0 ROOT
