@<TRIPOS>MOLECULE
OPX
   41    42     1     0     0
SMALL
abcg2


@<TRIPOS>ATOM
      1 CAF         -5.3830     0.4860    -0.3770 c6         1 OPX      -0.072400
      2 CAG         -4.7880     1.0150     0.9240 c6         1 OPX      -0.071900
      3 CAH         -4.3980     0.6410    -1.5300 c6         1 OPX      -0.071900
      4 CAI         -3.4480     0.3540     1.2300 c6         1 OPX      -0.077900
      5 CAJ         -3.0580    -0.0150    -1.2130 c6         1 OPX      -0.077900
      6 CAK         -0.1310     0.1790    -0.5070 c3         1 OPX       0.205800
      7 CAL          2.3060     0.1830    -1.0760 c5         1 OPX      -0.030900
      8 CAM          1.6700     0.8120     1.2120 c5         1 OPX      -0.030900
      9 CAO          3.4110     0.9740    -0.3910 c5         1 OPX       0.123800
     10 CAP          2.6550     1.8170     0.6400 c5         1 OPX       0.123800
     11 CAQ         -2.4570     0.5270     0.0830 c6         1 OPX       0.191500
     12 CAR          1.2700    -0.1100     0.0300 c5         1 OPX      -0.308000
     13 NAN         -1.2100    -0.1480     0.3990 n7         1 OPX      -0.857400
     14 OAC          4.1330     1.7370    -1.3300 oh         1 OPX      -0.667500
     15 OAD          1.9540     2.8680     0.0120 oh         1 OPX      -0.667500
     16 SAS          1.4230    -1.8530     0.5470 s6         1 OPX       1.319600
     17 H1          -5.6340    -0.5730    -0.2560 hc         1 OPX       0.029200
     18 H2          -6.3190     1.0030    -0.6060 hc         1 OPX       0.029200
     19 H3          -4.6510     2.0990     0.8450 hc         1 OPX       0.027450
     20 H4          -5.4820     0.8540     1.7530 hc         1 OPX       0.027450
     21 H5          -4.8140     0.2130    -2.4460 hc         1 OPX       0.027450
     22 H6          -4.2420     1.7060    -1.7330 hc         1 OPX       0.027450
     23 H7          -3.0230     0.7710     2.1490 hc         1 OPX       0.050700
     24 H8          -3.5970    -0.7160     1.4100 hc         1 OPX       0.050700
     25 H9          -3.1910    -1.0980    -1.1050 hc         1 OPX       0.050700
     26 H10         -2.3680     0.1340    -2.0470 hc         1 OPX       0.050700
     27 H11         -0.1370     1.2470    -0.7820 h1         1 OPX       0.029700
     28 H12         -0.2590    -0.3760    -1.4410 h1         1 OPX       0.029700
     29 H13          1.8460     0.8040    -1.8500 hc         1 OPX       0.054200
     30 H14          2.6760    -0.7130    -1.5730 hc         1 OPX       0.054200
     31 H15          2.1700     0.2550     2.0060 hc         1 OPX       0.054200
     32 H16          0.8090     1.3000     1.6750 hc         1 OPX       0.054200
     33 H17          4.0680     0.2830     0.1510 h1         1 OPX       0.045700
     34 H18          3.3280     2.2090     1.4160 h1         1 OPX       0.045700
     35 H19         -2.2950     1.6130    -0.0580 h1         1 OPX       0.002700
     36 H20         -0.9420     0.0800     1.3480 hn         1 OPX       0.428000
     37 H22          4.9400     2.0540    -0.9120 ho         1 OPX       0.433000
     38 H23          2.5420     3.2500    -0.6500 ho         1 OPX       0.433000
     39 OAA          0.8720    -2.6560    -0.5640 o          1 OPX      -0.688200
     40 OAB          2.8750    -2.0730     0.7420 o          1 OPX      -0.688200
     41 OAE          0.6720    -2.0010     1.8100 o          1 OPX      -0.688200
@<TRIPOS>BOND
     1     1     2 1   
     2     1     3 1   
     3     1    17 1   
     4     1    18 1   
     5     2     4 1   
     6     2    19 1   
     7     2    20 1   
     8     3     5 1   
     9     3    21 1   
    10     3    22 1   
    11     4    11 1   
    12     4    23 1   
    13     4    24 1   
    14     5    11 1   
    15     5    25 1   
    16     5    26 1   
    17     6    12 1   
    18     6    13 1   
    19     6    27 1   
    20     6    28 1   
    21     7     9 1   
    22     7    12 1   
    23     7    29 1   
    24     7    30 1   
    25     8    10 1   
    26     8    12 1   
    27     8    31 1   
    28     8    32 1   
    29     9    10 1   
    30     9    14 1   
    31     9    33 1   
    32    10    15 1   
    33    10    34 1   
    34    11    13 1   
    35    11    35 1   
    36    12    16 1   
    37    13    36 1   
    38    14    37 1   
    39    15    38 1   
    40    16    39 1   
    41    16    40 1   
    42    16    41 1   
@<TRIPOS>SUBSTRUCTURE
     1 OPX         1 TEMP              0 ****  ****    0 ROOT
