@<TRIPOS>MOLECULE
OPY
   32    32     1     0     0
SMALL
No Charge or Current Charge


@<TRIPOS>ATOM
      1 C          -18.3170    32.7040   -17.5300 c          1 OPY       0.594100
      2 N          -16.3190    32.8290   -19.2310 n8         1 OPY      -0.990200
      3 O          -19.0220    33.3540   -18.2980 o          1 OPY      -0.600100
      4 CA         -16.7760    32.4820   -17.8400 c3         1 OPY       0.098500
      5 CB         -15.8730    33.1980   -16.7950 c3         1 OPY      -0.062400
      6 CAD        -16.0480    34.7340   -16.7590 c3         1 OPY       0.150800
      7 CAE        -20.6090    30.0230   -15.3500 c6         1 OPY      -0.074400
      8 CAF        -21.1770    31.2420   -16.1170 c6         1 OPY      -0.096900
      9 CAG        -19.1310    29.7730   -15.7380 c6         1 OPY      -0.096900
     10 CAI        -20.2740    32.4840   -15.9250 c6         1 OPY       0.098000
     11 CAJ        -18.2840    31.0560   -15.5590 c6         1 OPY       0.098000
     12 NAM        -18.8710    32.1910   -16.3260 n          1 OPY      -0.416800
     13 HN         -15.3720    32.4610   -19.3840 hn         1 OPY       0.406500
     14 HNA        -16.8920    32.3170   -19.9140 hn         1 OPY       0.406500
     15 HA         -16.6000    31.4030   -17.7450 h1         1 OPY       0.024700
     16 HB         -16.0800    32.7980   -15.7960 hc         1 OPY       0.046200
     17 HBA        -14.8230    32.9600   -17.0070 hc         1 OPY       0.046200
     18 HNAA       -15.3630    36.3690   -15.7120 hn         1 OPY       0.390000
     19 HNAB       -15.4700    35.0370   -14.8070 hn         1 OPY       0.390000
     20 HAD        -15.7980    35.1590   -17.7420 h1         1 OPY       0.045700
     21 HADA       -17.0940    34.9850   -16.5320 h1         1 OPY       0.045700
     22 HAEA       -21.2110    29.1290   -15.5630 hc         1 OPY       0.042700
     23 HAF        -21.2520    31.0060   -17.1870 hc         1 OPY       0.049450
     24 HAFA       -22.1960    31.4630   -15.7710 hc         1 OPY       0.049450
     25 HAG        -18.7140    28.9620   -15.1260 hc         1 OPY       0.049450
     26 HAGA       -19.0730    29.4400   -16.7830 hc         1 OPY       0.049450
     27 HAI        -20.6820    33.3300   -16.4960 h1         1 OPY       0.054700
     28 HAIA       -20.2850    32.7800   -14.8660 h1         1 OPY       0.054700
     29 HAJ        -18.2580    31.3270   -14.4930 h1         1 OPY       0.054700
     30 HAJA       -17.2500    30.8450   -15.8560 h1         1 OPY       0.054700
     31 HAE        -20.6810    30.2010   -14.2680 hc         1 OPY       0.042700
     32 NAA        -15.1790    35.3580   -15.7380 n8         1 OPY      -1.005200
@<TRIPOS>BOND
     1     1     3 2   
     2     1     4 1   
     3     1    12 1   
     4     2     4 1   
     5     2    13 1   
     6     2    14 1   
     7     4     5 1   
     8     4    15 1   
     9     5     6 1   
    10     5    16 1   
    11     5    17 1   
    12     6    20 1   
    13     6    21 1   
    14     6    32 1   
    15     7     8 1   
    16     7     9 1   
    17     7    22 1   
    18     7    31 1   
    19     8    10 1   
    20     8    23 1   
    21     8    24 1   
    22     9    11 1   
    23     9    25 1   
    24     9    26 1   
    25    10    12 1   
    26    10    27 1   
    27    10    28 1   
    28    11    12 1   
    29    11    29 1   
    30    11    30 1   
    31    18    32 1   
    32    19    32 1   
@<TRIPOS>SUBSTRUCTURE
     1 OPY         1 TEMP              0 ****  ****    0 ROOT
