@<TRIPOS>MOLECULE
OPY
   32    32     1     0     0
SMALL
abcg2


@<TRIPOS>ATOM
      1 C          -18.2770    32.7130   -17.5560 c          1 OPY       0.594100
      2 N          -16.4440    32.8910   -19.1640 n8         1 OPY      -0.990200
      3 O          -18.9050    33.4560   -18.3170 o          1 OPY      -0.600100
      4 CA         -16.7900    32.4330   -17.8140 c3         1 OPY       0.098500
      5 CB         -15.8900    33.1400   -16.7830 c3         1 OPY      -0.062400
      6 CAD        -16.1620    34.6300   -16.6250 c3         1 OPY       0.150800
      7 CAE        -20.5460    30.1030   -15.3010 c6         1 OPY      -0.074400
      8 CAF        -21.1150    31.1990   -16.2030 c6         1 OPY      -0.096900
      9 CAG        -19.0770    29.8430   -15.6300 c6         1 OPY      -0.096900
     10 CAI        -20.2480    32.4540   -16.1410 c6         1 OPY       0.098000
     11 CAJ        -18.2600    31.1350   -15.5960 c6         1 OPY       0.098000
     12 NAM        -18.8550    32.1460   -16.4720 n          1 OPY      -0.416800
     13 HN         -15.6020    32.4110   -19.4640 hn         1 OPY       0.406500
     14 HNA        -17.1800    32.6420   -19.8140 hn         1 OPY       0.406500
     15 HA         -16.6310    31.3550   -17.7120 h1         1 OPY       0.024700
     16 HB         -15.9890    32.6560   -15.8090 hc         1 OPY       0.046200
     17 HBA        -14.8530    32.9970   -17.1000 hc         1 OPY       0.046200
     18 HNAA       -15.3600    36.2260   -15.6240 hn         1 OPY       0.390000
     19 HNAB       -15.3220    34.8480   -14.7720 hn         1 OPY       0.390000
     20 HAD        -16.0640    35.1240   -17.5930 h1         1 OPY       0.045700
     21 HADA       -17.1980    34.7770   -16.2930 h1         1 OPY       0.045700
     22 HAEA       -21.1260    29.1830   -15.4030 hc         1 OPY       0.042700
     23 HAF        -21.1530    30.8450   -17.2380 hc         1 OPY       0.049450
     24 HAFA       -22.1350    31.4540   -15.9070 hc         1 OPY       0.049450
     25 HAG        -18.6410    29.1340   -14.9220 hc         1 OPY       0.049450
     26 HAGA       -18.9930    29.4020   -16.6280 hc         1 OPY       0.049450
     27 HAI        -20.5990    33.2170   -16.8280 h1         1 OPY       0.054700
     28 HAIA       -20.2660    32.8670   -15.1260 h1         1 OPY       0.054700
     29 HAJ        -18.2430    31.5370   -14.5760 h1         1 OPY       0.054700
     30 HAJA       -17.2350    30.9360   -15.8840 h1         1 OPY       0.054700
     31 HAE        -20.6300    30.4190   -14.2550 hc         1 OPY       0.042700
     32 NAA        -15.1860    35.2290   -15.7040 n8         1 OPY      -1.005200
@<TRIPOS>BOND
     1     1     3 2   
     2     1     4 1   
     3     1    12 1   
     4     2     4 1   
     5     2    13 1   
     6     2    14 1   
     7     4     5 1   
     8     4    15 1   
     9     5     6 1   
    10     5    16 1   
    11     5    17 1   
    12     6    20 1   
    13     6    21 1   
    14     6    32 1   
    15     7     8 1   
    16     7     9 1   
    17     7    22 1   
    18     7    31 1   
    19     8    10 1   
    20     8    23 1   
    21     8    24 1   
    22     9    11 1   
    23     9    25 1   
    24     9    26 1   
    25    10    12 1   
    26    10    27 1   
    27    10    28 1   
    28    11    12 1   
    29    11    29 1   
    30    11    30 1   
    31    18    32 1   
    32    19    32 1   
@<TRIPOS>SUBSTRUCTURE
     1 OPY         1 TEMP              0 ****  ****    0 ROOT
