@<TRIPOS>MOLECULE
OPZ
   43    45     1     0     0
SMALL
No Charge or Current Charge


@<TRIPOS>ATOM
      1 CAJ         -6.5330     1.0330    -0.1360 cc         1 OPZ      -0.220000
      2 NAM         -7.5820     0.9850     0.7600 na         1 OPZ      -0.300500
      3 CAI         -7.3070     0.0070     1.6840 cc         1 OPZ       0.391400
      4 NAO         -6.1400    -0.5620     1.4170 nd         1 OPZ      -0.675000
      5 CAT         -5.6570     0.0700     0.2920 cd         1 OPZ       0.235300
      6 CAK         -4.3390    -0.3050    -0.3240 c3         1 OPZ      -0.111700
      7 CAL         -3.1430     0.1730     0.5200 c3         1 OPZ       0.128000
      8 NAY         -1.8450    -0.1570    -0.0930 n          1 OPZ      -0.290300
      9 C           -1.0380     0.7320    -0.8010 c          1 OPZ       0.540000
     10 O           -1.2460     1.9270    -0.9700 o          1 OPZ      -0.519000
     11 OG1         -1.4100    -1.4910    -0.0180 os         1 OPZ      -0.231100
     12 CB          -0.4860    -1.6200    -1.1270 c5         1 OPZ       0.119300
     13 CG2          0.5020    -2.7750    -0.8420 c3         1 OPZ      -0.087100
     14 CA           0.0970    -0.1660    -1.3250 c5         1 OPZ       0.002700
     15 N            1.2430     0.0060    -0.3900 ns         1 OPZ      -0.468900
     16 CAQ          2.5260    -0.1400    -0.8770 c          1 OPZ       0.635700
     17 OAB          2.7470    -0.3620    -2.0620 o          1 OPZ      -0.645100
     18 CAV          3.6550    -0.0140     0.1250 ca         1 OPZ      -0.248600
     19 CAH          3.3960     0.2290     1.4990 ca         1 OPZ      -0.076000
     20 CAF          4.4500     0.3420     2.4200 ca         1 OPZ      -0.125000
     21 CAG          5.7800     0.2160     1.9980 ca         1 OPZ      -0.148000
     22 CAS          6.0650    -0.0260     0.6450 ca         1 OPZ       0.086100
     23 OAD          7.3760    -0.1470     0.2540 oh         1 OPZ      -0.509100
     24 CAU          5.0050    -0.1420    -0.2930 ca         1 OPZ       0.201100
     25 OAE          5.2890    -0.3780    -1.6100 oh         1 OPZ      -0.526100
     26 H1          -6.4850     1.7170    -0.9760 h4         1 OPZ       0.160000
     27 H2          -8.4170     1.5600     0.7550 hn         1 OPZ       0.354000
     28 H3          -7.9770    -0.2350     2.5020 h5         1 OPZ       0.056100
     29 H5          -4.2810    -1.3930    -0.4480 hc         1 OPZ       0.058700
     30 H6          -4.2620     0.1280    -1.3280 hc         1 OPZ       0.058700
     31 H7          -3.2110     1.2590     0.6640 h1         1 OPZ       0.074700
     32 H8          -3.1900    -0.2950     1.5120 h1         1 OPZ       0.074700
     33 H9          -1.0780    -1.8880    -2.0130 h1         1 OPZ       0.063700
     34 H10         -0.0290    -3.7330    -0.7890 hc         1 OPZ       0.054367
     35 H11          1.2500    -2.8560    -1.6400 hc         1 OPZ       0.054367
     36 H12          1.0300    -2.6360     0.1080 hc         1 OPZ       0.054367
     37 H13          0.3080     0.0790    -2.3740 h1         1 OPZ       0.124700
     38 H14          1.1400     0.1840     0.6010 hn         1 OPZ       0.332500
     39 H15          2.3830     0.3340     1.8780 ha         1 OPZ       0.109000
     40 H16          4.2310     0.5290     3.4700 ha         1 OPZ       0.120000
     41 H17          6.5840     0.3060     2.7250 ha         1 OPZ       0.117000
     42 H18          7.9520    -0.0360     1.0400 ho         1 OPZ       0.460000
     43 H19          4.4060    -0.4240    -2.0670 ho         1 OPZ       0.517000
@<TRIPOS>BOND
     1     1     2 1   
     2     1     5 2   
     3     1    26 1   
     4     2     3 1   
     5     2    27 1   
     6     3     4 2   
     7     3    28 1   
     8     4     5 1   
     9     5     6 1   
    10     6     7 1   
    11     6    29 1   
    12     6    30 1   
    13     7     8 1   
    14     7    31 1   
    15     7    32 1   
    16     8     9 1   
    17     8    11 1   
    18     9    10 2   
    19     9    14 1   
    20    11    12 1   
    21    12    13 1   
    22    12    14 1   
    23    12    33 1   
    24    13    34 1   
    25    13    35 1   
    26    13    36 1   
    27    14    15 1   
    28    14    37 1   
    29    15    16 1   
    30    15    38 1   
    31    16    17 2   
    32    16    18 1   
    33    18    19 ar  
    34    18    24 ar  
    35    19    20 ar  
    36    19    39 1   
    37    20    21 ar  
    38    20    40 1   
    39    21    22 ar  
    40    21    41 1   
    41    22    23 1   
    42    22    24 ar  
    43    23    42 1   
    44    24    25 1   
    45    25    43 1   
@<TRIPOS>SUBSTRUCTURE
     1 OPZ         1 TEMP              0 ****  ****    0 ROOT
