@<TRIPOS>MOLECULE
OPZ
   43    45     1     0     0
SMALL
abcg2


@<TRIPOS>ATOM
      1 CAJ         -6.5300     1.0000    -0.3020 cc         1 OPZ      -0.220000
      2 NAM         -7.5490     1.0460     0.6050 na         1 OPZ      -0.300500
      3 CAI         -7.2340     0.2110     1.6120 cc         1 OPZ       0.391400
      4 NAO         -6.0780    -0.3690     1.4100 nd         1 OPZ      -0.675000
      5 CAT         -5.6240     0.1140     0.2110 cd         1 OPZ       0.235300
      6 CAK         -4.3110    -0.2980    -0.3590 c3         1 OPZ      -0.111700
      7 CAL         -3.1500     0.2550     0.4690 c3         1 OPZ       0.128000
      8 NAY         -1.8680    -0.1270    -0.0530 n          1 OPZ      -0.290300
      9 C           -0.9470     0.6090    -0.6840 c          1 OPZ       0.540000
     10 O           -0.9760     1.8140    -0.8560 o          1 OPZ      -0.519000
     11 OG1         -1.5470    -1.4700     0.0420 os         1 OPZ      -0.231100
     12 CB          -0.5930    -1.7000    -1.0070 c5         1 OPZ       0.119300
     13 CG2          0.2340    -2.9130    -0.6800 c3         1 OPZ      -0.087100
     14 CA           0.1440    -0.3650    -1.1250 c5         1 OPZ       0.002700
     15 N            1.3070    -0.2160    -0.2900 ns         1 OPZ      -0.468900
     16 CAQ          2.5580    -0.1920    -0.7770 c          1 OPZ       0.635700
     17 OAB          2.7750    -0.2490    -1.9940 o          1 OPZ      -0.645100
     18 CAV          3.6770    -0.0810     0.1880 ca         1 OPZ      -0.248600
     19 CAH          3.5070    -0.2400     1.5720 ca         1 OPZ      -0.076000
     20 CAF          4.5760    -0.1120     2.4270 ca         1 OPZ      -0.125000
     21 CAG          5.8430     0.1780     1.9210 ca         1 OPZ      -0.148000
     22 CAS          6.0400     0.3260     0.5640 ca         1 OPZ       0.086100
     23 OAD          7.2340     0.5960     0.0010 oh         1 OPZ      -0.509100
     24 CAU          4.9560     0.1830    -0.3240 ca         1 OPZ       0.201100
     25 OAE          5.2220     0.3170    -1.6230 oh         1 OPZ      -0.526100
     26 H1          -6.5330     1.5820    -1.2080 h4         1 OPZ       0.160000
     27 H2          -8.3880     1.5980     0.5290 hn         1 OPZ       0.354000
     28 H3          -7.8810     0.0610     2.4630 h5         1 OPZ       0.056100
     29 H5          -4.2450    -1.3880    -0.3920 hc         1 OPZ       0.058700
     30 H6          -4.2220     0.0600    -1.3860 hc         1 OPZ       0.058700
     31 H7          -3.1680     1.3450     0.4700 h1         1 OPZ       0.074700
     32 H8          -3.2280    -0.0710     1.5090 h1         1 OPZ       0.074700
     33 H9          -1.1420    -1.8530    -1.9440 h1         1 OPZ       0.063700
     34 H10         -0.3900    -3.8040    -0.6260 hc         1 OPZ       0.054367
     35 H11          0.9690    -3.0710    -1.4690 hc         1 OPZ       0.054367
     36 H12          0.7660    -2.8050     0.2650 hc         1 OPZ       0.054367
     37 H13          0.4250    -0.1640    -2.1570 h1         1 OPZ       0.124700
     38 H14          1.1670    -0.1170     0.7020 hn         1 OPZ       0.332500
     39 H15          2.5420    -0.4920     1.9920 ha         1 OPZ       0.109000
     40 H16          4.4410    -0.2410     3.4920 ha         1 OPZ       0.120000
     41 H17          6.6840     0.2810     2.5990 ha         1 OPZ       0.117000
     42 H18          7.9100     0.6790     0.6820 ho         1 OPZ       0.460000
     43 H19          4.3840     0.1160    -2.1030 ho         1 OPZ       0.517000
@<TRIPOS>BOND
     1     1     2 1   
     2     1     5 2   
     3     1    26 1   
     4     2     3 1   
     5     2    27 1   
     6     3     4 2   
     7     3    28 1   
     8     4     5 1   
     9     5     6 1   
    10     6     7 1   
    11     6    29 1   
    12     6    30 1   
    13     7     8 1   
    14     7    31 1   
    15     7    32 1   
    16     8     9 1   
    17     8    11 1   
    18     9    10 2   
    19     9    14 1   
    20    11    12 1   
    21    12    13 1   
    22    12    14 1   
    23    12    33 1   
    24    13    34 1   
    25    13    35 1   
    26    13    36 1   
    27    14    15 1   
    28    14    37 1   
    29    15    16 1   
    30    15    38 1   
    31    16    17 2   
    32    16    18 1   
    33    18    19 ar  
    34    18    24 ar  
    35    19    20 ar  
    36    19    39 1   
    37    20    21 ar  
    38    20    40 1   
    39    21    22 ar  
    40    21    41 1   
    41    22    23 1   
    42    22    24 ar  
    43    23    42 1   
    44    24    25 1   
    45    25    43 1   
@<TRIPOS>SUBSTRUCTURE
     1 OPZ         1 TEMP              0 ****  ****    0 ROOT
