@<TRIPOS>MOLECULE
OQ1
   31    32     1     0     0
SMALL
No Charge or Current Charge


@<TRIPOS>ATOM
      1 C1          -1.8330    -1.1200    -0.3220 c6         1 OQ1       0.102300
      2 C2          -0.3550    -1.5810    -0.2700 c6         1 OQ1       0.163300
      3 C3           0.3470    -1.0310     1.0150 c5         1 OQ1       0.114500
      4 C4           0.1250     0.5010     1.2490 c5         1 OQ1       0.316300
      5 C9           2.3180    -0.1330     0.4030 c2         1 OQ1       0.719100
      6 C12          5.7990     0.5540    -0.8620 c3         1 OQ1      -0.111100
      7 C           -1.8880     0.4340    -0.2490 c6         1 OQ1       0.075300
      8 O           -1.2390     0.9150     0.9570 os         1 OQ1      -0.391000
      9 O6          -0.3040    -3.0160    -0.3390 oh         1 OQ1      -0.636000
     10 O7          -2.4560    -1.6170    -1.5280 oh         1 OQ1      -0.722000
     11 N            1.8430    -1.2070     0.9040 n2         1 OQ1      -0.673900
     12 S            1.3030     1.2760     0.0830 ss         1 OQ1      -0.472200
     13 N10          3.6450    -0.1140     0.1240 nu         1 OQ1      -0.903400
     14 H1          -2.3480    -1.5240     0.5640 h1         1 OQ1       0.070700
     15 H2           0.1510    -1.1570    -1.1510 h1         1 OQ1       0.053700
     16 H3          -0.0410    -1.5830     1.8820 h1         1 OQ1       0.103700
     17 H4           0.4000     0.7770     2.2760 h2         1 OQ1       0.117700
     18 H6           4.1990     1.8860    -0.2790 h1         1 OQ1       0.050700
     19 H7           3.8430     0.9040    -1.7180 h1         1 OQ1       0.050700
     20 H8           6.2930     1.3050    -1.4890 hc         1 OQ1       0.047033
     21 H9           6.2900     0.5480     0.1180 hc         1 OQ1       0.047033
     22 H10          5.9380    -0.4280    -1.3310 hc         1 OQ1       0.047033
     23 H11         -1.3550     0.8470    -1.1180 h1         1 OQ1       0.087700
     24 H12         -0.9610    -3.2520    -1.0330 ho         1 OQ1       0.453000
     25 H13         -3.4070    -1.7910    -1.3270 ho         1 OQ1       0.516000
     26 H14          4.0930    -1.0160     0.2470 hn         1 OQ1       0.504000
     27 C5          -3.3380     1.0040    -0.2730 c3         1 OQ1       0.189300
     28 F           -4.0650     0.5750     0.7860 f          1 OQ1      -0.114500
     29 F1          -3.3360     2.3580    -0.2340 f          1 OQ1      -0.114500
     30 C11          4.3050     0.8850    -0.7200 c3         1 OQ1       0.237800
     31 H5          -3.8310     0.6830    -1.1970 h2         1 OQ1       0.071700
@<TRIPOS>BOND
     1     1     2 1   
     2     1     7 1   
     3     1    10 1   
     4     1    14 1   
     5     2     3 1   
     6     2     9 1   
     7     2    15 1   
     8     3     4 1   
     9     3    11 1   
    10     3    16 1   
    11     4     8 1   
    12     4    12 1   
    13     4    17 1   
    14     5    11 2   
    15     5    12 1   
    16     5    13 1   
    17     6    20 1   
    18     6    21 1   
    19     6    22 1   
    20     6    30 1   
    21     7     8 1   
    22     7    23 1   
    23     7    27 1   
    24     9    24 1   
    25    10    25 1   
    26    13    26 1   
    27    13    30 1   
    28    18    30 1   
    29    19    30 1   
    30    27    28 1   
    31    27    29 1   
    32    27    31 1   
@<TRIPOS>SUBSTRUCTURE
     1 OQ1         1 TEMP              0 ****  ****    0 ROOT
