@<TRIPOS>MOLECULE
OQ1
   31    32     1     0     0
SMALL
abcg2


@<TRIPOS>ATOM
      1 C1          -1.8750    -1.1080    -0.2500 c6         1 OQ1       0.102300
      2 C2          -0.4400    -1.6200    -0.2180 c6         1 OQ1       0.163300
      3 C3           0.3210    -1.0460     0.9800 c5         1 OQ1       0.114500
      4 C4           0.0640     0.4620     1.1480 c5         1 OQ1       0.316300
      5 C9           2.3120    -0.2380     0.2990 c2         1 OQ1       0.719100
      6 C12          5.7460     0.6080    -0.8730 c3         1 OQ1      -0.111100
      7 C           -1.8300     0.4200    -0.2690 c6         1 OQ1       0.075300
      8 O           -1.2220     0.8990     0.9080 os         1 OQ1      -0.391000
      9 O6          -0.3870    -3.0180    -0.1240 oh         1 OQ1      -0.636000
     10 O7          -2.4990    -1.5970    -1.4160 oh         1 OQ1      -0.722000
     11 N            1.7380    -1.2500     0.8320 n2         1 OQ1      -0.673900
     12 S            1.3390     1.2300     0.0390 ss         1 OQ1      -0.472200
     13 N10          3.6000    -0.2020    -0.0670 nu         1 OQ1      -0.903400
     14 H1          -2.3950    -1.4470     0.6550 h1         1 OQ1       0.070700
     15 H2           0.0530    -1.2700    -1.1390 h1         1 OQ1       0.053700
     16 H3          -0.0430    -1.5480     1.8830 h1         1 OQ1       0.103700
     17 H4           0.3060     0.7750     2.1640 h2         1 OQ1       0.117700
     18 H6           4.2210     1.7930     0.0630 h1         1 OQ1       0.050700
     19 H7           3.8210     1.2540    -1.5640 h1         1 OQ1       0.050700
     20 H8           6.2640     1.4760    -1.2780 hc         1 OQ1       0.047033
     21 H9           6.2480     0.3200     0.0520 hc         1 OQ1       0.047033
     22 H10          5.8490    -0.2080    -1.5880 hc         1 OQ1       0.047033
     23 H11         -1.2750     0.7480    -1.1620 h1         1 OQ1       0.087700
     24 H12         -0.8190    -3.3850    -0.9030 ho         1 OQ1       0.453000
     25 H13         -3.3670    -1.9430    -1.1900 ho         1 OQ1       0.516000
     26 H14          4.1050    -1.0710     0.0110 hn         1 OQ1       0.504000
     27 C5          -3.2030     1.0460    -0.3490 c3         1 OQ1       0.189300
     28 F           -3.9550     0.6990     0.7320 f          1 OQ1      -0.114500
     29 F1          -3.0970     2.4020    -0.3280 f          1 OQ1      -0.114500
     30 C11          4.2890     0.9460    -0.6240 c3         1 OQ1       0.237800
     31 H5          -3.7350     0.7540    -1.2550 h2         1 OQ1       0.071700
@<TRIPOS>BOND
     1     1     2 1   
     2     1     7 1   
     3     1    10 1   
     4     1    14 1   
     5     2     3 1   
     6     2     9 1   
     7     2    15 1   
     8     3     4 1   
     9     3    11 1   
    10     3    16 1   
    11     4     8 1   
    12     4    12 1   
    13     4    17 1   
    14     5    11 2   
    15     5    12 1   
    16     5    13 1   
    17     6    20 1   
    18     6    21 1   
    19     6    22 1   
    20     6    30 1   
    21     7     8 1   
    22     7    23 1   
    23     7    27 1   
    24     9    24 1   
    25    10    25 1   
    26    13    26 1   
    27    13    30 1   
    28    18    30 1   
    29    19    30 1   
    30    27    28 1   
    31    27    29 1   
    32    27    31 1   
@<TRIPOS>SUBSTRUCTURE
     1 OQ1         1 TEMP              0 ****  ****    0 ROOT
