@<TRIPOS>MOLECULE
OQ2
   86    90     1     0     0
SMALL
abcg2


@<TRIPOS>ATOM
      1 C4          11.2720    -3.9910    18.4140 ca         1 OQ2      -0.141000
      2 C5          10.8090    -4.1860    17.1170 ca         1 OQ2      -0.026000
      3 C6           9.9090    -3.2650    16.5840 ca         1 OQ2      -0.092000
      4 N1          11.4810    -9.6930     8.4850 nb         1 OQ2      -0.269000
      5 C7          11.2270    -5.5750    15.1050 c          1 OQ2       0.621700
      6 C8          11.7620    -6.9120    14.7100 ca         1 OQ2      -0.154600
      7 N2          13.3990    -8.9020     9.6410 nb         1 OQ2      -0.278000
      8 C9          11.7040    -8.0280    15.5390 ca         1 OQ2      -0.081000
      9 C10         12.1960    -9.2480    15.1030 ca         1 OQ2      -0.114000
     10 C11         12.7600    -9.4000    13.8410 ca         1 OQ2      -0.048300
     11 C12         12.7990    -8.2680    13.0270 ca         1 OQ2       0.083100
     12 N3          13.4750    -9.4660     7.4060 nu         1 OQ2      -0.920100
     13 C13         12.3020    -7.0460    13.4340 ca         1 OQ2      -0.052000
     14 C14         12.6860    -8.8000    10.7390 ca         1 OQ2       0.392300
     15 C15         11.3350    -9.1230    10.8020 ca         1 OQ2      -0.351000
     16 N4          16.7290    -7.8230     7.5350 n          1 OQ2      -0.420800
     17 O2          18.8100    -6.9920     7.5510 o          1 OQ2      -0.608100
     18 C22         17.6030    -6.8070     7.4410 c          1 OQ2       0.605100
     19 C23         17.0160    -5.4320     7.1950 c3         1 OQ2      -0.153400
     20 C24         18.0570    -4.3260     7.2080 c3         1 OQ2      -0.076100
     21 C19         15.2870    -7.7220     7.3900 c5         1 OQ2       0.088000
     22 C20         17.1770    -9.1910     7.7850 c5         1 OQ2       0.106000
     23 C21         15.8850    -9.9570     8.0370 c5         1 OQ2      -0.114400
     24 C18         14.8710    -9.1850     7.1920 c5         1 OQ2       0.244500
     25 C17         12.7750    -9.3460     8.5490 ca         1 OQ2       0.415900
     26 C16         10.7960    -9.5720     9.6070 ca         1 OQ2       0.174900
     27 O1          13.3970    -8.3510    11.7890 os         1 OQ2      -0.354400
     28 C25         13.2930   -10.7180    13.3720 c3         1 OQ2      -0.055800
     29 O           10.8180    -4.7850    14.2730 o          1 OQ2      -0.565100
     30 N           11.2520    -5.3250    16.4390 ns         1 OQ2      -0.144000
     31 C1           9.4850    -2.1720    17.3330 ca         1 OQ2      -0.143300
     32 C2           8.5220    -1.2340    16.6530 c3         1 OQ2       0.365300
     33 F2           7.8480    -1.8520    15.6660 f          1 OQ2      -0.111333
     34 F1           9.1420    -0.1990    16.0740 f          1 OQ2      -0.111333
     35 F            7.5880    -0.7460    17.4730 f          1 OQ2      -0.111333
     36 C3          10.8510    -2.8960    19.1430 ca         1 OQ2      -0.094000
     37 C            9.9590    -1.9580    18.6340 ca         1 OQ2      -0.053300
     38 C26          9.5610    -0.8020    19.5200 c3         1 OQ2       0.216100
     39 N5           9.7720     0.4800    18.8960 n3         1 OQ2      -0.723600
     40 C29         11.1770     0.7880    18.7150 c6         1 OQ2       0.135300
     41 C30         11.3350     2.1180    17.9860 c6         1 OQ2       0.164800
     42 N6          10.6490     3.2270    18.6250 n3         1 OQ2      -0.718600
     43 C31         11.3290     3.7280    19.8120 c3         1 OQ2       0.169800
     44 C32         10.8230     5.0950    20.2420 c3         1 OQ2      -0.090100
     45 C28          9.2570     2.8610    18.8320 c6         1 OQ2       0.164800
     46 C27          9.0760     1.5490    19.5850 c6         1 OQ2       0.135300
     47 H1          11.9690    -4.6930    18.8570 ha         1 OQ2       0.115000
     48 H2           9.5310    -3.4140    15.5870 ha         1 OQ2       0.162000
     49 H3          11.2540    -7.9730    16.5220 ha         1 OQ2       0.118000
     50 H4          12.1360   -10.1070    15.7600 ha         1 OQ2       0.123000
     51 H5          12.9500    -9.8070     6.6190 hn         1 OQ2       0.514000
     52 H6          12.3500    -6.1970    12.7640 ha         1 OQ2       0.155000
     53 H7          10.7310    -9.0380    11.6920 ha         1 OQ2       0.147000
     54 H8          16.2440    -5.2340     7.9440 hc         1 OQ2       0.055200
     55 H9          16.4920    -5.4410     6.2350 hc         1 OQ2       0.055200
     56 H10         17.5770    -3.3620     7.0430 hc         1 OQ2       0.041033
     57 H11         18.5800    -4.2770     8.1620 hc         1 OQ2       0.041033
     58 H12         18.8010    -4.4650     6.4250 hc         1 OQ2       0.041033
     59 H13         14.8210    -7.2980     8.2830 h1         1 OQ2       0.060200
     60 H14         15.0030    -7.1130     6.5310 h1         1 OQ2       0.060200
     61 H15         17.7100    -9.5840     6.9150 h1         1 OQ2       0.056200
     62 H16         17.8580    -9.2330     8.6350 h1         1 OQ2       0.056200
     63 H17         15.6120    -9.9120     9.0910 hc         1 OQ2       0.070200
     64 H18         15.9610   -11.0030     7.7430 hc         1 OQ2       0.070200
     65 H19         15.0490    -9.4370     6.1450 h1         1 OQ2       0.055700
     66 H20          9.7480    -9.8470     9.5640 h4         1 OQ2       0.023100
     67 H21         14.3170   -10.6310    13.0080 hc         1 OQ2       0.055367
     68 H22         13.2820   -11.4470    14.1790 hc         1 OQ2       0.055367
     69 H23         12.6920   -11.1220    12.5550 hc         1 OQ2       0.055367
     70 H24         11.7550    -5.9830    17.0140 hn         1 OQ2       0.155000
     71 H25         11.2380    -2.7590    20.1450 ha         1 OQ2       0.117000
     72 H26          8.5060    -0.8900    19.7900 h1         1 OQ2       0.043700
     73 H27         10.1180    -0.8960    20.4680 h1         1 OQ2       0.043700
     74 H29         11.6450     0.0020    18.1160 h1         1 OQ2       0.034450
     75 H30         11.7200     0.8110    19.6770 h1         1 OQ2       0.034450
     76 H31         12.3950     2.3580    17.8840 h1         1 OQ2       0.061450
     77 H32         10.9300     2.0030    16.9750 h1         1 OQ2       0.061450
     78 H34         11.2790     3.0410    20.6700 h1         1 OQ2       0.026200
     79 H35         12.3890     3.8130    19.5610 h1         1 OQ2       0.026200
     80 H36         11.4240     5.4720    21.0700 hc         1 OQ2       0.036367
     81 H37         10.8900     5.8100    19.4210 hc         1 OQ2       0.036367
     82 H38          9.7870     5.0680    20.5830 hc         1 OQ2       0.036367
     83 H39          8.7300     3.6610    19.3540 h1         1 OQ2       0.061450
     84 H40          8.7840     2.7580    17.8500 h1         1 OQ2       0.061450
     85 H41          8.0110     1.3090    19.6290 h1         1 OQ2       0.034450
     86 H42          9.4180     1.6590    20.6300 h1         1 OQ2       0.034450
@<TRIPOS>BOND
     1     1     2 ar  
     2     1    36 ar  
     3     1    47 1   
     4     2     3 ar  
     5     2    30 1   
     6     3    31 ar  
     7     3    48 1   
     8     4    25 ar  
     9     4    26 ar  
    10     5     6 1   
    11     5    29 2   
    12     5    30 1   
    13     6     8 ar  
    14     6    13 ar  
    15     7    14 ar  
    16     7    25 ar  
    17     8     9 ar  
    18     8    49 1   
    19     9    10 ar  
    20     9    50 1   
    21    10    11 ar  
    22    10    28 1   
    23    11    13 ar  
    24    11    27 1   
    25    12    24 1   
    26    12    25 1   
    27    12    51 1   
    28    13    52 1   
    29    14    15 ar  
    30    14    27 1   
    31    15    26 ar  
    32    15    53 1   
    33    16    18 1   
    34    16    21 1   
    35    16    22 1   
    36    17    18 2   
    37    18    19 1   
    38    19    20 1   
    39    19    54 1   
    40    19    55 1   
    41    20    56 1   
    42    20    57 1   
    43    20    58 1   
    44    21    24 1   
    45    21    59 1   
    46    21    60 1   
    47    22    23 1   
    48    22    61 1   
    49    22    62 1   
    50    23    24 1   
    51    23    63 1   
    52    23    64 1   
    53    24    65 1   
    54    26    66 1   
    55    28    67 1   
    56    28    68 1   
    57    28    69 1   
    58    30    70 1   
    59    31    32 1   
    60    31    37 ar  
    61    32    33 1   
    62    32    34 1   
    63    32    35 1   
    64    36    37 ar  
    65    36    71 1   
    66    37    38 1   
    67    38    39 1   
    68    38    72 1   
    69    38    73 1   
    70    39    40 1   
    71    39    46 1   
    72    40    41 1   
    73    40    74 1   
    74    40    75 1   
    75    41    42 1   
    76    41    76 1   
    77    41    77 1   
    78    42    43 1   
    79    42    45 1   
    80    43    44 1   
    81    43    78 1   
    82    43    79 1   
    83    44    80 1   
    84    44    81 1   
    85    44    82 1   
    86    45    46 1   
    87    45    83 1   
    88    45    84 1   
    89    46    85 1   
    90    46    86 1   
@<TRIPOS>SUBSTRUCTURE
     1 OQ2         1 TEMP              0 ****  ****    0 ROOT
