@<TRIPOS>MOLECULE
OQ2
   86    90     1     0     0
SMALL
No Charge or Current Charge


@<TRIPOS>ATOM
      1 C4          10.6530    -3.9410    16.8080 ca         1 OQ2      -0.141000
      2 C5          11.3130    -4.2020    15.5990 ca         1 OQ2      -0.026000
      3 C6          11.4860    -3.1520    14.6730 ca         1 OQ2      -0.092000
      4 N1          12.0980   -10.2970     8.8230 nb         1 OQ2      -0.269000
      5 C7          12.2550    -6.1820    14.2540 c          1 OQ2       0.621700
      6 C8          12.7470    -7.6020    14.4660 ca         1 OQ2      -0.154600
      7 N2          14.1140   -10.0510    10.1040 nb         1 OQ2      -0.278000
      8 C9          12.7850    -8.2090    15.7450 ca         1 OQ2      -0.081000
      9 C10         13.2630    -9.5220    15.9010 ca         1 OQ2      -0.114000
     10 C11         13.7090   -10.2610    14.7910 ca         1 OQ2      -0.048300
     11 C12         13.6650    -9.6720    13.5120 ca         1 OQ2       0.083100
     12 N3          14.0580    -9.6860     7.7790 nu         1 OQ2      -0.920100
     13 C13         13.1950    -8.3530    13.3540 ca         1 OQ2      -0.052000
     14 C14         13.4400   -10.3580    11.2230 ca         1 OQ2       0.392300
     15 C15         12.0690   -10.6500    11.1900 ca         1 OQ2      -0.351000
     16 N4          14.8560    -6.2240     8.7670 n          1 OQ2      -0.420800
     17 O2          15.5480    -4.1580     9.4590 o          1 OQ2      -0.608100
     18 C22         14.6230    -4.9490     9.3190 c          1 OQ2       0.605100
     19 C23         13.1810    -4.5880     9.7310 c3         1 OQ2      -0.153400
     20 C24         13.0040    -3.2400    10.4650 c3         1 OQ2      -0.076100
     21 C19         13.7960    -7.2330     8.5260 c5         1 OQ2       0.088000
     22 C20         16.2060    -6.6880     8.3640 c5         1 OQ2       0.106000
     23 C21         16.0040    -8.2220     8.2300 c5         1 OQ2      -0.114400
     24 C18         14.5730    -8.2700     7.6410 c5         1 OQ2       0.244500
     25 C17         13.4020   -10.0100     8.9650 ca         1 OQ2       0.415900
     26 C16         11.4270   -10.6160     9.9450 ca         1 OQ2       0.174900
     27 O1          14.1100   -10.3840    12.4200 os         1 OQ2      -0.354400
     28 C25         14.2250   -11.6840    14.9750 c3         1 OQ2      -0.055800
     29 O           12.2630    -5.6690    13.1410 o          1 OQ2      -0.565100
     30 N           11.7950    -5.5240    15.3890 ns         1 OQ2      -0.144000
     31 C1          10.9980    -1.8460    14.9350 ca         1 OQ2      -0.143300
     32 C2          11.2020    -0.7290    13.8860 c3         1 OQ2       0.365300
     33 F2          11.9220    -1.1340    12.8150 f          1 OQ2      -0.111333
     34 F1          11.8600     0.3390    14.3900 f          1 OQ2      -0.111333
     35 F           10.0240    -0.2790    13.3970 f          1 OQ2      -0.111333
     36 C3          10.1580    -2.6600    17.0840 ca         1 OQ2      -0.094000
     37 C           10.3200    -1.6030    16.1660 ca         1 OQ2      -0.053300
     38 C26          9.7410    -0.2340    16.5530 c3         1 OQ2       0.216100
     39 N5          10.7270     0.7010    17.1500 n3         1 OQ2      -0.723600
     40 C29         11.3640     0.1900    18.4040 c6         1 OQ2       0.135300
     41 C30         12.4020     1.1990    18.9990 c6         1 OQ2       0.164800
     42 N6          11.8170     2.5560    19.2460 n3         1 OQ2      -0.718600
     43 C31         10.8920     2.5780    20.4110 c3         1 OQ2       0.169800
     44 C32         10.4200     3.9850    20.8280 c3         1 OQ2      -0.090100
     45 C28         11.2190     3.0570    17.9630 c6         1 OQ2       0.164800
     46 C27         10.1640     2.0690    17.3640 c6         1 OQ2       0.135300
     47 H1          10.5160    -4.7350    17.5390 ha         1 OQ2       0.115000
     48 H2          12.0150    -3.3440    13.7450 ha         1 OQ2       0.162000
     49 H3          12.4560    -7.6780    16.6350 ha         1 OQ2       0.118000
     50 H4          13.2860    -9.9650    16.8950 ha         1 OQ2       0.123000
     51 H5          13.5710   -10.0750     6.9690 hn         1 OQ2       0.514000
     52 H6          13.1860    -7.9090    12.3610 ha         1 OQ2       0.155000
     53 H7          11.5250   -10.9040    12.0950 ha         1 OQ2       0.147000
     54 H8          12.7720    -5.4170    10.3200 hc         1 OQ2       0.055200
     55 H9          12.5550    -4.6350     8.8330 hc         1 OQ2       0.055200
     56 H10         11.9490    -3.0800    10.7170 hc         1 OQ2       0.041033
     57 H11         13.5850    -3.2270    11.3960 hc         1 OQ2       0.041033
     58 H12         13.3360    -2.4060     9.8350 hc         1 OQ2       0.041033
     59 H13         13.4440    -7.6170     9.4900 h1         1 OQ2       0.060200
     60 H14         12.9360    -6.8180     7.9850 h1         1 OQ2       0.060200
     61 H15         16.4970    -6.2350     7.4070 h1         1 OQ2       0.056200
     62 H16         16.9730    -6.4420     9.1110 h1         1 OQ2       0.056200
     63 H17         16.0900    -8.6970     9.2110 hc         1 OQ2       0.070200
     64 H18         16.7480    -8.6870     7.5750 hc         1 OQ2       0.070200
     65 H19         14.5950    -7.9410     6.5910 h1         1 OQ2       0.055700
     66 H20         10.3660   -10.8420     9.8420 h4         1 OQ2       0.023100
     67 H21         15.2670   -11.7680    14.6440 hc         1 OQ2       0.055367
     68 H22         14.1840   -12.0020    16.0230 hc         1 OQ2       0.055367
     69 H23         13.6290   -12.3950    14.3900 hc         1 OQ2       0.055367
     70 H24         11.8070    -6.0890    16.2270 hn         1 OQ2       0.155000
     71 H25          9.6440    -2.4840    18.0270 ha         1 OQ2       0.117000
     72 H26          9.2840     0.2240    15.6670 h1         1 OQ2       0.043700
     73 H27          8.9150    -0.3920    17.2610 h1         1 OQ2       0.043700
     74 H29         11.8860    -0.7580    18.2090 h1         1 OQ2       0.034450
     75 H30         10.5950    -0.0210    19.1610 h1         1 OQ2       0.034450
     76 H31         12.8200     0.7810    19.9260 h1         1 OQ2       0.061450
     77 H32         13.2400     1.2810    18.2900 h1         1 OQ2       0.061450
     78 H34         10.0060     1.9590    20.2160 h1         1 OQ2       0.026200
     79 H35         11.4020     2.1360    21.2770 h1         1 OQ2       0.026200
     80 H36          9.8540     3.9280    21.7650 hc         1 OQ2       0.036367
     81 H37         11.2780     4.6490    20.9870 hc         1 OQ2       0.036367
     82 H38          9.7660     4.4290    20.0690 hc         1 OQ2       0.036367
     83 H39         10.7570     4.0450    18.0930 h1         1 OQ2       0.061450
     84 H40         12.0150     3.1910    17.2160 h1         1 OQ2       0.061450
     85 H41          9.8050     2.4810    16.4090 h1         1 OQ2       0.034450
     86 H42          9.2950     2.0220    18.0360 h1         1 OQ2       0.034450
@<TRIPOS>BOND
     1     1     2 ar  
     2     1    36 ar  
     3     1    47 1   
     4     2     3 ar  
     5     2    30 1   
     6     3    31 ar  
     7     3    48 1   
     8     4    25 ar  
     9     4    26 ar  
    10     5     6 1   
    11     5    29 2   
    12     5    30 1   
    13     6     8 ar  
    14     6    13 ar  
    15     7    14 ar  
    16     7    25 ar  
    17     8     9 ar  
    18     8    49 1   
    19     9    10 ar  
    20     9    50 1   
    21    10    11 ar  
    22    10    28 1   
    23    11    13 ar  
    24    11    27 1   
    25    12    24 1   
    26    12    25 1   
    27    12    51 1   
    28    13    52 1   
    29    14    15 ar  
    30    14    27 1   
    31    15    26 ar  
    32    15    53 1   
    33    16    18 1   
    34    16    21 1   
    35    16    22 1   
    36    17    18 2   
    37    18    19 1   
    38    19    20 1   
    39    19    54 1   
    40    19    55 1   
    41    20    56 1   
    42    20    57 1   
    43    20    58 1   
    44    21    24 1   
    45    21    59 1   
    46    21    60 1   
    47    22    23 1   
    48    22    61 1   
    49    22    62 1   
    50    23    24 1   
    51    23    63 1   
    52    23    64 1   
    53    24    65 1   
    54    26    66 1   
    55    28    67 1   
    56    28    68 1   
    57    28    69 1   
    58    30    70 1   
    59    31    32 1   
    60    31    37 ar  
    61    32    33 1   
    62    32    34 1   
    63    32    35 1   
    64    36    37 ar  
    65    36    71 1   
    66    37    38 1   
    67    38    39 1   
    68    38    72 1   
    69    38    73 1   
    70    39    40 1   
    71    39    46 1   
    72    40    41 1   
    73    40    74 1   
    74    40    75 1   
    75    41    42 1   
    76    41    76 1   
    77    41    77 1   
    78    42    43 1   
    79    42    45 1   
    80    43    44 1   
    81    43    78 1   
    82    43    79 1   
    83    44    80 1   
    84    44    81 1   
    85    44    82 1   
    86    45    46 1   
    87    45    83 1   
    88    45    84 1   
    89    46    85 1   
    90    46    86 1   
@<TRIPOS>SUBSTRUCTURE
     1 OQ2         1 TEMP              0 ****  ****    0 ROOT
