@<TRIPOS>MOLECULE
OQ3
   28    28     1     0     0
SMALL
abcg2


@<TRIPOS>ATOM
      1 C4          16.2690    20.6590     0.8630 c          1 OQ3       0.614700
      2 C5          17.7250    20.7060     1.2400 ca         1 OQ3      -0.147600
      3 C6          18.6510    19.9010     0.5720 ca         1 OQ3      -0.039000
      4 C11         18.1550    21.6170     2.1920 ca         1 OQ3       0.005000
      5 C7          20.0000    20.0260     0.8710 ca         1 OQ3      -0.033900
      6 C8          20.4470    20.9180     1.8320 ca         1 OQ3      -0.035000
      7 C9          19.5130    21.7120     2.4980 ca         1 OQ3      -0.200600
      8 C10         19.9980    22.6480     3.5320 c          1 OQ3       0.581500
      9 N1          15.5780    19.5260     1.1050 n          1 OQ3      -0.403800
     10 C3          15.3040    18.4090     3.3180 c3         1 OQ3       0.056600
     11 C1          14.1870    19.4630     0.6680 c3         1 OQ3       0.083300
     12 C2          16.0380    18.4530     1.9820 c3         1 OQ3       0.116000
     13 O1          15.7650    21.6420     0.3140 o          1 OQ3      -0.582100
     14 O2          19.2830    23.3720     4.1950 o          1 OQ3      -0.506100
     15 S1          15.6060    19.9540     4.2630 sh         1 OQ3      -0.451800
     16 BR1         21.2660    18.9370    -0.0600 br         1 OQ3      -0.095100
     17 H1          18.3180    19.1900    -0.1710 ha         1 OQ3       0.136000
     18 H2          17.4460    22.2480     2.7090 ha         1 OQ3       0.155000
     19 H3          21.4990    21.0010     2.0690 ha         1 OQ3       0.133000
     20 H4          21.0930    22.6500     3.6770 h4         1 OQ3      -0.005800
     21 H5          14.2320    18.2910     3.1720 h1         1 OQ3       0.066200
     22 H6          15.6750    17.5580     3.8890 h1         1 OQ3       0.066200
     23 H7          13.8960    18.4170     0.5900 h1         1 OQ3       0.046700
     24 H8          13.5230    19.9660     1.3750 h1         1 OQ3       0.046700
     25 H9          14.0880    19.9410    -0.3030 h1         1 OQ3       0.046700
     26 H10         15.8800    17.4990     1.4730 h1         1 OQ3       0.064200
     27 H11         17.1050    18.5600     2.1520 h1         1 OQ3       0.064200
     28 H12         14.7430    19.6950     5.2590 hs         1 OQ3       0.219800
@<TRIPOS>BOND
     1     1     2 1   
     2     1     9 1   
     3     1    13 2   
     4     2     3 ar  
     5     2     4 ar  
     6     3     5 ar  
     7     3    17 1   
     8     4     7 ar  
     9     4    18 1   
    10     5     6 ar  
    11     5    16 1   
    12     6     7 ar  
    13     6    19 1   
    14     7     8 1   
    15     8    14 2   
    16     8    20 1   
    17     9    11 1   
    18     9    12 1   
    19    10    12 1   
    20    10    15 1   
    21    10    21 1   
    22    10    22 1   
    23    11    23 1   
    24    11    24 1   
    25    11    25 1   
    26    12    26 1   
    27    12    27 1   
    28    15    28 1   
@<TRIPOS>SUBSTRUCTURE
     1 OQ3         1 TEMP              0 ****  ****    0 ROOT
