@<TRIPOS>MOLECULE
OQ3
   28    28     1     0     0
SMALL
No Charge or Current Charge


@<TRIPOS>ATOM
      1 C4          16.2490    20.7900     1.2360 c          1 OQ3       0.614700
      2 C5          17.7450    20.8150     1.4490 ca         1 OQ3      -0.147600
      3 C6          18.5920    19.8420     0.8720 ca         1 OQ3      -0.039000
      4 C11         18.3190    21.8740     2.1830 ca         1 OQ3       0.005000
      5 C7          19.9800    19.9070     1.0670 ca         1 OQ3      -0.033900
      6 C8          20.5440    20.9480     1.8210 ca         1 OQ3      -0.035000
      7 C9          19.7160    21.9420     2.3800 ca         1 OQ3      -0.200600
      8 C10         20.3280    23.0620     3.1750 c          1 OQ3       0.581500
      9 N1          15.5910    19.5430     1.1060 n          1 OQ3      -0.403800
     10 C3          15.1190    18.1300     3.1740 c3         1 OQ3       0.056600
     11 C1          14.2070    19.5140     0.5790 c3         1 OQ3       0.083300
     12 C2          16.0010    18.3690     1.9280 c3         1 OQ3       0.116000
     13 O1          15.6360    21.8390     1.0770 o          1 OQ3      -0.582100
     14 O2          19.6700    23.9600     3.6890 o          1 OQ3      -0.506100
     15 S1          15.1410    19.5310     4.3940 sh         1 OQ3      -0.451800
     16 Br1         21.1110    18.5750     0.2900 br         1 OQ3      -0.095100
     17 H1          18.1790    19.0420     0.2600 ha         1 OQ3       0.136000
     18 H2          17.6740    22.6410     2.6100 ha         1 OQ3       0.155000
     19 H3          21.6230    20.9850     1.9630 ha         1 OQ3       0.133000
     20 H4          21.4350    23.0360     3.2790 h4         1 OQ3      -0.005800
     21 H5          14.0810    17.9520     2.8640 h1         1 OQ3       0.066200
     22 H6          15.4720    17.2260     3.6870 h1         1 OQ3       0.066200
     23 H7          13.8990    18.4800     0.3760 h1         1 OQ3       0.046700
     24 H8          13.5200    19.9580     1.3110 h1         1 OQ3       0.046700
     25 H9          14.1530    20.0850    -0.3570 h1         1 OQ3       0.046700
     26 H10         15.9680    17.4740     1.2940 h1         1 OQ3       0.064200
     27 H11         17.0330    18.4770     2.2790 h1         1 OQ3       0.064200
     28 H12         14.2980    18.9620     5.2920 hs         1 OQ3       0.219800
@<TRIPOS>BOND
     1     1     2 1   
     2     1     9 1   
     3     1    13 2   
     4     2     3 ar  
     5     2     4 ar  
     6     3     5 ar  
     7     3    17 1   
     8     4     7 ar  
     9     4    18 1   
    10     5     6 ar  
    11     5    16 1   
    12     6     7 ar  
    13     6    19 1   
    14     7     8 1   
    15     8    14 2   
    16     8    20 1   
    17     9    11 1   
    18     9    12 1   
    19    10    12 1   
    20    10    15 1   
    21    10    21 1   
    22    10    22 1   
    23    11    23 1   
    24    11    24 1   
    25    11    25 1   
    26    12    26 1   
    27    12    27 1   
    28    15    28 1   
@<TRIPOS>SUBSTRUCTURE
     1 OQ3         1 TEMP              0 ****  ****    0 ROOT
