@<TRIPOS>MOLECULE
OQ4
   91    95     1     0     0
SMALL
No Charge or Current Charge


@<TRIPOS>ATOM
      1 C1         -22.6870     3.5230    23.6410 c3         1 OQ4      -0.108100
      2 C2         -23.6360     2.5740    24.3920 c3         1 OQ4       0.124700
      3 C3         -24.5550     3.3170    25.3870 c3         1 OQ4      -0.108100
      4 N1         -22.9690     1.3670    24.9630 n          1 OQ4      -0.396800
      5 C4         -23.3110     0.0720    24.3220 c3         1 OQ4       0.095000
      6 C5         -24.7650    -0.3870    24.5550 c3         1 OQ4      -0.115100
      7 C6         -22.4420     1.3590    26.2800 c          1 OQ4       0.623700
      8 O1         -22.5330     0.3640    26.9910 o          1 OQ4      -0.600100
      9 C7         -21.6520     2.5440    26.7650 ca         1 OQ4      -0.112600
     10 C8         -22.0350     3.2050    27.9530 ca         1 OQ4      -0.111000
     11 C9         -21.2500     4.2490    28.4640 ca         1 OQ4       0.160000
     12 F1         -21.6330     4.8870    29.5910 f          1 OQ4      -0.173000
     13 C10        -20.0530     4.6120    27.8300 ca         1 OQ4      -0.125000
     14 C11        -19.6390     3.9270    26.6730 ca         1 OQ4      -0.123000
     15 C12        -20.4490     2.9100    26.1230 ca         1 OQ4       0.124100
     16 O2         -20.0220     2.1600    25.0480 os         1 OQ4      -0.243200
     17 C13        -19.3410     2.6310    23.9340 ca         1 OQ4      -0.039900
     18 C14        -19.2890     4.0040    23.6010 ca         1 OQ4       0.058900
     19 N2         -18.6570     4.4420    22.4950 nb         1 OQ4      -0.201000
     20 C15        -18.0890     3.5030    21.7140 ca         1 OQ4       0.140900
     21 N3         -18.1020     2.1710    21.9190 nb         1 OQ4      -0.264000
     22 C16        -18.7310     1.7230    23.0250 ca         1 OQ4       0.405900
     23 N4         -18.7670     0.3480    23.1890 nn         1 OQ4      -0.791300
     24 C17        -18.2000    -0.7720    22.3870 cy         1 OQ4       0.241300
     25 C18        -19.2230    -0.5360    24.3010 cy         1 OQ4       0.241300
     26 C19        -19.1030    -1.7100    23.2690 cy         1 OQ4      -0.094000
     27 C20        -18.3910    -2.9830    23.7990 c6         1 OQ4      -0.062900
     28 C21        -18.2350    -4.0450    22.6840 c6         1 OQ4       0.171300
     29 C22        -20.4500    -2.1100    22.5990 c6         1 OQ4      -0.062900
     30 C23        -20.2370    -3.1980    21.5190 c6         1 OQ4       0.171300
     31 N5         -19.5500    -4.4010    22.0700 n3         1 OQ4      -0.728600
     32 C24        -19.4630    -5.4900    21.0620 c3         1 OQ4       0.176800
     33 C25        -18.9770    -6.8800    21.5820 c6         1 OQ4      -0.062700
     34 C26        -19.8370    -7.3990    22.7700 c6         1 OQ4      -0.068400
     35 C27        -19.3520    -8.7880    23.2550 c6         1 OQ4      -0.088400
     36 C28        -18.9670    -7.9270    20.4350 c6         1 OQ4      -0.068400
     37 C29        -18.4870    -9.3150    20.9290 c6         1 OQ4      -0.088400
     38 C30        -19.3570    -9.8310    22.1100 c6         1 OQ4       0.236500
     39 N6         -18.8750   -11.1180    22.6440 n7         1 OQ4      -0.927300
     40 S1         -19.3220   -12.5640    21.9490 s6         1 OQ4       1.194100
     41 O3         -19.0640   -12.4620    20.5130 o          1 OQ4      -0.544500
     42 O4         -18.6660   -13.5970    22.7540 o          1 OQ4      -0.544500
     43 C31        -21.0930   -12.6300    22.2740 c3         1 OQ4      -0.306400
     44 C32        -21.7470   -13.9590    21.8290 c3         1 OQ4      -0.067100
     45 H1         -23.2610     4.2400    23.0440 hc         1 OQ4       0.044867
     46 H2         -22.0680     4.0940    24.3390 hc         1 OQ4       0.044867
     47 H3         -22.0380     2.9600    22.9600 hc         1 OQ4       0.044867
     48 H4         -24.3150     2.2050    23.6120 h1         1 OQ4       0.051700
     49 H5         -25.2130     2.6100    25.9070 hc         1 OQ4       0.044867
     50 H6         -23.9780     3.8720    26.1330 hc         1 OQ4       0.044867
     51 H7         -25.1870     4.0360    24.8540 hc         1 OQ4       0.044867
     52 H8         -22.6280    -0.7060    24.6870 h1         1 OQ4       0.055700
     53 H9         -23.1360     0.1630    23.2410 h1         1 OQ4       0.055700
     54 H10        -24.9330    -1.3610    24.0830 hc         1 OQ4       0.042033
     55 H11        -24.9710    -0.4870    25.6280 hc         1 OQ4       0.042033
     56 H12        -25.4820     0.3240    24.1300 hc         1 OQ4       0.042033
     57 H13        -22.9410     2.9090    28.4760 ha         1 OQ4       0.142000
     58 H14        -19.4350     5.4020    28.2500 ha         1 OQ4       0.138000
     59 H15        -18.6810     4.1730    26.2220 ha         1 OQ4       0.136000
     60 H16        -19.7690     4.7690    24.2060 h4         1 OQ4       0.026100
     61 H17        -17.5770     3.8550    20.8200 h5         1 OQ4       0.047100
     62 H18        -18.4540    -0.7760    21.3200 h1         1 OQ4       0.065450
     63 H19        -17.1220    -0.9270    22.5200 h1         1 OQ4       0.065450
     64 H20        -18.5270    -0.6040    25.1450 h1         1 OQ4       0.065450
     65 H21        -20.2450    -0.3750    24.6630 h1         1 OQ4       0.065450
     66 H22        -18.9700    -3.4140    24.6270 hc         1 OQ4       0.054450
     67 H23        -17.4040    -2.7320    24.2100 hc         1 OQ4       0.054450
     68 H24        -17.7610    -4.9300    23.1310 h1         1 OQ4       0.032450
     69 H25        -17.5470    -3.6640    21.9140 h1         1 OQ4       0.032450
     70 H26        -20.9360    -1.2340    22.1480 hc         1 OQ4       0.054450
     71 H27        -21.1450    -2.4910    23.3600 hc         1 OQ4       0.054450
     72 H28        -19.6520    -2.7740    20.6890 h1         1 OQ4       0.032450
     73 H29        -21.2190    -3.4770    21.1090 h1         1 OQ4       0.032450
     74 H31        -18.7960    -5.1810    20.2450 h1         1 OQ4       0.031700
     75 H32        -20.4560    -5.6440    20.6180 h1         1 OQ4       0.031700
     76 H33        -17.9420    -6.7540    21.9250 hc         1 OQ4       0.046700
     77 H34        -19.7950    -6.6890    23.6070 hc         1 OQ4       0.048950
     78 H35        -20.8920    -7.4590    22.4680 hc         1 OQ4       0.048950
     79 H36        -19.9980    -9.1350    24.0730 hc         1 OQ4       0.048200
     80 H37        -18.3410    -8.6970    23.6750 hc         1 OQ4       0.048200
     81 H38        -18.3140    -7.5830    19.6210 hc         1 OQ4       0.048950
     82 H39        -19.9750    -8.0200    20.0040 hc         1 OQ4       0.048950
     83 H40        -18.5190   -10.0160    20.0860 hc         1 OQ4       0.048200
     84 H41        -17.4350    -9.2490    21.2390 hc         1 OQ4       0.048200
     85 H42        -20.3980    -9.9330    21.7670 h1         1 OQ4       0.067700
     86 H43        -17.8620   -11.1670    22.5680 hn         1 OQ4       0.496000
     87 H44        -21.2110   -12.4830    23.3530 h1         1 OQ4       0.094200
     88 H45        -21.5440   -11.7890    21.7390 h1         1 OQ4       0.094200
     89 H46        -22.8220   -13.9470    22.0460 hc         1 OQ4       0.051367
     90 H47        -21.6200   -14.1170    20.7510 hc         1 OQ4       0.051367
     91 H48        -21.3040   -14.8120    22.3580 hc         1 OQ4       0.051367
@<TRIPOS>BOND
     1     1     2 1   
     2     1    45 1   
     3     1    46 1   
     4     1    47 1   
     5     2     3 1   
     6     2     4 1   
     7     2    48 1   
     8     3    49 1   
     9     3    50 1   
    10     3    51 1   
    11     4     5 1   
    12     4     7 1   
    13     5     6 1   
    14     5    52 1   
    15     5    53 1   
    16     6    54 1   
    17     6    55 1   
    18     6    56 1   
    19     7     8 2   
    20     7     9 1   
    21     9    10 ar  
    22     9    15 ar  
    23    10    11 ar  
    24    10    57 1   
    25    11    12 1   
    26    11    13 ar  
    27    13    14 ar  
    28    13    58 1   
    29    14    15 ar  
    30    14    59 1   
    31    15    16 1   
    32    16    17 1   
    33    17    18 ar  
    34    17    22 ar  
    35    18    19 ar  
    36    18    60 1   
    37    19    20 ar  
    38    20    21 ar  
    39    20    61 1   
    40    21    22 ar  
    41    22    23 1   
    42    23    24 1   
    43    23    25 1   
    44    24    26 1   
    45    24    62 1   
    46    24    63 1   
    47    25    26 1   
    48    25    64 1   
    49    25    65 1   
    50    26    27 1   
    51    26    29 1   
    52    27    28 1   
    53    27    66 1   
    54    27    67 1   
    55    28    31 1   
    56    28    68 1   
    57    28    69 1   
    58    29    30 1   
    59    29    70 1   
    60    29    71 1   
    61    30    31 1   
    62    30    72 1   
    63    30    73 1   
    64    31    32 1   
    65    32    33 1   
    66    32    74 1   
    67    32    75 1   
    68    33    34 1   
    69    33    36 1   
    70    33    76 1   
    71    34    35 1   
    72    34    77 1   
    73    34    78 1   
    74    35    38 1   
    75    35    79 1   
    76    35    80 1   
    77    36    37 1   
    78    36    81 1   
    79    36    82 1   
    80    37    38 1   
    81    37    83 1   
    82    37    84 1   
    83    38    39 1   
    84    38    85 1   
    85    39    40 1   
    86    39    86 1   
    87    40    41 2   
    88    40    42 2   
    89    40    43 1   
    90    43    44 1   
    91    43    87 1   
    92    43    88 1   
    93    44    89 1   
    94    44    90 1   
    95    44    91 1   
@<TRIPOS>SUBSTRUCTURE
     1 OQ4         1 TEMP              0 ****  ****    0 ROOT
