@<TRIPOS>MOLECULE
OQ4
   91    95     1     0     0
SMALL
abcg2


@<TRIPOS>ATOM
      1 C1         -22.3860     3.5890    23.6840 c3         1 OQ4      -0.108100
      2 C2         -23.5120     2.6930    24.1790 c3         1 OQ4       0.124700
      3 C3         -24.4990     3.4550    25.0560 c3         1 OQ4      -0.108100
      4 N1         -23.0610     1.4170    24.7650 n          1 OQ4      -0.396800
      5 C4         -23.5780     0.2120    24.1190 c3         1 OQ4       0.095000
      6 C5         -25.0070    -0.1190    24.5170 c3         1 OQ4      -0.115100
      7 C6         -22.3890     1.2560    25.9160 c          1 OQ4       0.623700
      8 O1         -22.2450     0.1710    26.4650 o          1 OQ4      -0.600100
      9 C7         -21.7180     2.4230    26.5880 ca         1 OQ4      -0.112600
     10 C8         -22.3370     3.0770    27.6450 ca         1 OQ4      -0.111000
     11 C9         -21.6180     4.0020    28.3750 ca         1 OQ4       0.160000
     12 F1         -22.2300     4.6470    29.3790 f          1 OQ4      -0.173000
     13 C10        -20.2860     4.2610    28.1200 ca         1 OQ4      -0.125000
     14 C11        -19.6580     3.5780    27.0890 ca         1 OQ4      -0.123000
     15 C12        -20.3750     2.6740    26.3190 ca         1 OQ4       0.124100
     16 O2         -19.7970     1.9190    25.3360 os         1 OQ4      -0.243200
     17 C13        -19.1230     2.4650    24.2860 ca         1 OQ4      -0.039900
     18 C14        -18.8970     3.7970    24.0610 ca         1 OQ4       0.058900
     19 N2         -18.2540     4.2510    22.9740 nb         1 OQ4      -0.201000
     20 C15        -17.8550     3.3320    22.1220 ca         1 OQ4       0.140900
     21 N3         -18.0260     2.0240    22.2240 nb         1 OQ4      -0.264000
     22 C16        -18.6650     1.5540    23.2980 ca         1 OQ4       0.405900
     23 N4         -18.8620     0.2370    23.3490 nn         1 OQ4      -0.791300
     24 C17        -18.4920    -0.7520    22.3560 cy         1 OQ4       0.241300
     25 C18        -19.3680    -0.7350    24.3100 cy         1 OQ4       0.241300
     26 C19        -19.1970    -1.8230    23.2270 cy         1 OQ4      -0.094000
     27 C20        -18.3560    -3.0310    23.5870 c6         1 OQ4      -0.062900
     28 C21        -18.2140    -3.9680    22.3950 c6         1 OQ4       0.171300
     29 C22        -20.5230    -2.2820    22.6390 c6         1 OQ4      -0.062900
     30 C23        -20.3030    -3.2460    21.4860 c6         1 OQ4       0.171300
     31 N5         -19.5130    -4.3870    21.9060 n3         1 OQ4      -0.728600
     32 C24        -19.4360    -5.3970    20.8700 c3         1 OQ4       0.176800
     33 C25        -18.9290    -6.7560    21.3480 c6         1 OQ4      -0.062700
     34 C26        -19.6950    -7.2620    22.5670 c6         1 OQ4      -0.068400
     35 C27        -19.2250    -8.6440    23.0030 c6         1 OQ4      -0.088400
     36 C28        -19.0270    -7.7710    20.2090 c6         1 OQ4      -0.068400
     37 C29        -18.5690    -9.1600    20.6340 c6         1 OQ4      -0.088400
     38 C30        -19.3350    -9.6460    21.8610 c6         1 OQ4       0.236500
     39 N6         -18.8780   -10.9590    22.3120 n7         1 OQ4      -0.927300
     40 S1         -19.5830   -12.3490    21.7950 s6         1 OQ4       1.194100
     41 O3         -20.3660   -12.1050    20.5880 o          1 OQ4      -0.544500
     42 O4         -18.5490   -13.3770    21.7670 o          1 OQ4      -0.544500
     43 C31        -20.7290   -12.7440    23.1110 c3         1 OQ4      -0.306400
     44 C32        -21.5100   -14.0100    22.8090 c3         1 OQ4      -0.067100
     45 H1         -22.8100     4.3810    23.0660 hc         1 OQ4       0.044867
     46 H2         -21.8470     4.0690    24.4980 hc         1 OQ4       0.044867
     47 H3         -21.6770     3.0340    23.0700 hc         1 OQ4       0.044867
     48 H4         -24.0650     2.3800    23.2930 h1         1 OQ4       0.051700
     49 H5         -25.2700     2.7970    25.4560 hc         1 OQ4       0.044867
     50 H6         -24.0100     3.9600    25.8880 hc         1 OQ4       0.044867
     51 H7         -24.9900     4.2220    24.4570 hc         1 OQ4       0.044867
     52 H8         -22.9210    -0.6230    24.3540 h1         1 OQ4       0.055700
     53 H9         -23.5130     0.3680    23.0410 h1         1 OQ4       0.055700
     54 H10        -25.3320    -1.0280    24.0090 hc         1 OQ4       0.042033
     55 H11        -25.0890    -0.2850    25.5900 hc         1 OQ4       0.042033
     56 H12        -25.6980     0.6770    24.2400 hc         1 OQ4       0.042033
     57 H13        -23.3690     2.8690    27.8960 ha         1 OQ4       0.142000
     58 H14        -19.7360     4.9720    28.7220 ha         1 OQ4       0.138000
     59 H15        -18.6050     3.7480    26.9050 ha         1 OQ4       0.136000
     60 H16        -19.2500     4.5510    24.7550 h4         1 OQ4       0.026100
     61 H17        -17.3320     3.6760    21.2360 h5         1 OQ4       0.047100
     62 H18        -18.9150    -0.5720    21.3640 h1         1 OQ4       0.065450
     63 H19        -17.4100    -0.8840    22.2540 h1         1 OQ4       0.065450
     64 H20        -18.7210    -0.8550    25.1830 h1         1 OQ4       0.065450
     65 H21        -20.3920    -0.5740    24.6450 h1         1 OQ4       0.065450
     66 H22        -18.8280    -3.5710    24.4140 hc         1 OQ4       0.054450
     67 H23        -17.3650    -2.7200    23.9300 hc         1 OQ4       0.054450
     68 H24        -17.6410    -4.8440    22.7020 h1         1 OQ4       0.032450
     69 H25        -17.6240    -3.4720    21.6010 h1         1 OQ4       0.032450
     70 H26        -21.1070    -1.4230    22.2950 hc         1 OQ4       0.054450
     71 H27        -21.1110    -2.7750    23.4190 hc         1 OQ4       0.054450
     72 H28        -19.8300    -2.7090    20.6430 h1         1 OQ4       0.032450
     73 H29        -21.2690    -3.6030    21.1200 h1         1 OQ4       0.032450
     74 H31        -18.8170    -5.0630    20.0170 h1         1 OQ4       0.031700
     75 H32        -20.4480    -5.5350    20.4760 h1         1 OQ4       0.031700
     76 H33        -17.8700    -6.6740    21.6210 hc         1 OQ4       0.046700
     77 H34        -19.5930    -6.5610    23.3970 hc         1 OQ4       0.048950
     78 H35        -20.7640    -7.3000    22.3260 hc         1 OQ4       0.048950
     79 H36        -19.8120    -8.9950    23.8540 hc         1 OQ4       0.048200
     80 H37        -18.1820    -8.5920    23.3380 hc         1 OQ4       0.048200
     81 H38        -18.4370    -7.4350    19.3520 hc         1 OQ4       0.048950
     82 H39        -20.0670    -7.8230    19.8650 hc         1 OQ4       0.048950
     83 H40        -18.6960    -9.8700    19.8140 hc         1 OQ4       0.048200
     84 H41        -17.5000    -9.1390    20.8750 hc         1 OQ4       0.048200
     85 H42        -20.3930    -9.7420    21.6010 h1         1 OQ4       0.067700
     86 H43        -17.8790   -11.0560    22.4540 hn         1 OQ4       0.496000
     87 H44        -20.1310   -12.8390    24.0180 h1         1 OQ4       0.094200
     88 H45        -21.3860   -11.8810    23.2280 h1         1 OQ4       0.094200
     89 H46        -22.1710   -14.2290    23.6470 hc         1 OQ4       0.051367
     90 H47        -22.1260   -13.9000    21.9190 hc         1 OQ4       0.051367
     91 H48        -20.8510   -14.8670    22.6750 hc         1 OQ4       0.051367
@<TRIPOS>BOND
     1     1     2 1   
     2     1    45 1   
     3     1    46 1   
     4     1    47 1   
     5     2     3 1   
     6     2     4 1   
     7     2    48 1   
     8     3    49 1   
     9     3    50 1   
    10     3    51 1   
    11     4     5 1   
    12     4     7 1   
    13     5     6 1   
    14     5    52 1   
    15     5    53 1   
    16     6    54 1   
    17     6    55 1   
    18     6    56 1   
    19     7     8 2   
    20     7     9 1   
    21     9    10 ar  
    22     9    15 ar  
    23    10    11 ar  
    24    10    57 1   
    25    11    12 1   
    26    11    13 ar  
    27    13    14 ar  
    28    13    58 1   
    29    14    15 ar  
    30    14    59 1   
    31    15    16 1   
    32    16    17 1   
    33    17    18 ar  
    34    17    22 ar  
    35    18    19 ar  
    36    18    60 1   
    37    19    20 ar  
    38    20    21 ar  
    39    20    61 1   
    40    21    22 ar  
    41    22    23 1   
    42    23    24 1   
    43    23    25 1   
    44    24    26 1   
    45    24    62 1   
    46    24    63 1   
    47    25    26 1   
    48    25    64 1   
    49    25    65 1   
    50    26    27 1   
    51    26    29 1   
    52    27    28 1   
    53    27    66 1   
    54    27    67 1   
    55    28    31 1   
    56    28    68 1   
    57    28    69 1   
    58    29    30 1   
    59    29    70 1   
    60    29    71 1   
    61    30    31 1   
    62    30    72 1   
    63    30    73 1   
    64    31    32 1   
    65    32    33 1   
    66    32    74 1   
    67    32    75 1   
    68    33    34 1   
    69    33    36 1   
    70    33    76 1   
    71    34    35 1   
    72    34    77 1   
    73    34    78 1   
    74    35    38 1   
    75    35    79 1   
    76    35    80 1   
    77    36    37 1   
    78    36    81 1   
    79    36    82 1   
    80    37    38 1   
    81    37    83 1   
    82    37    84 1   
    83    38    39 1   
    84    38    85 1   
    85    39    40 1   
    86    39    86 1   
    87    40    41 2   
    88    40    42 2   
    89    40    43 1   
    90    43    44 1   
    91    43    87 1   
    92    43    88 1   
    93    44    89 1   
    94    44    90 1   
    95    44    91 1   
@<TRIPOS>SUBSTRUCTURE
     1 OQ4         1 TEMP              0 ****  ****    0 ROOT
