@<TRIPOS>MOLECULE
OQ5
  131   130     1     0     0
SMALL
No Charge or Current Charge


@<TRIPOS>ATOM
      1 C1          63.4320     0.1190    21.0680 c          1 OQ5       0.590100
      2 C2          62.2520     1.0920    20.9630 c3         1 OQ5      -0.165400
      3 C3          62.4650     2.2040    19.9120 c3         1 OQ5      -0.062400
      4 C7          62.3150     6.5760    22.3880 c3         1 OQ5      -0.070400
      5 C8          62.0630     6.3960    23.9070 c3         1 OQ5      -0.078400
      6 C9          60.5710     6.2230    24.2920 c3         1 OQ5      -0.072400
      7 C10         60.2980     6.0830    25.8110 c3         1 OQ5      -0.068400
      8 C11         61.0360     4.9250    26.5350 c3         1 OQ5      -0.073400
      9 C12         60.9320     3.5230    25.8830 c3         1 OQ5      -0.072400
     10 C13         59.4950     2.9770    25.7320 c3         1 OQ5      -0.082400
     11 C14         59.4560     1.5900    25.0530 c3         1 OQ5      -0.077400
     12 C15         58.0300     1.0200    24.9150 c3         1 OQ5      -0.076400
     13 C16         58.0040    -0.3750    24.2470 c3         1 OQ5      -0.074400
     14 C19         61.1840     3.0410    19.6780 c3         1 OQ5      -0.079400
     15 C21         63.9890    -2.3600    21.2100 c3         1 OQ5      -0.039300
     16 C22         64.2960    -2.4940    22.7280 c3         1 OQ5      -0.071400
     17 C24         65.5640    -3.7110    24.5700 c          1 OQ5       0.597100
     18 C30         65.0540    -4.5250    26.9060 c3         1 OQ5       0.107000
     19 C31         64.9490    -3.1970    27.6930 c3         1 OQ5       0.141600
     20 C33         63.3970    -1.4480    28.2930 c3         1 OQ5       0.150600
     21 C34         61.9040    -1.0690    28.2250 c3         1 OQ5       0.164600
     22 C4          61.4230     4.4700    19.1240 c3         1 OQ5      -0.067400
     23 C5          62.2130     5.4320    20.0540 c3         1 OQ5      -0.072400
     24 C6          61.7140     5.4470    21.5180 c3         1 OQ5      -0.078400
     25 C17         56.5860    -0.9510    24.0130 c3         1 OQ5      -0.056400
     26 O18         64.5790     0.4890    21.2760 o          1 OQ5      -0.664100
     27 N20         63.0900    -1.2090    20.9530 ns         1 OQ5      -0.467900
     28 C23         65.0930    -3.7640    23.1140 c3         1 OQ5      -0.154400
     29 C25         63.3750    -3.6590    20.5960 c          1 OQ5       0.714000
     30 O26         64.0660    -4.3180    19.8320 o          1 OQ5      -0.721500
     31 O27         62.1940    -3.9020    20.8100 o          1 OQ5      -0.721500
     32 N28         64.7820    -4.4040    25.4650 ns         1 OQ5      -0.505900
     33 O29         66.5850    -3.1280    24.9080 o          1 OQ5      -0.653100
     34 O32         63.5990    -2.7030    27.6150 os         1 OQ5      -0.454000
     35 O35         61.7660     0.2250    28.8400 os         1 OQ5      -0.481000
     36 C36         60.4100     0.7370    28.9260 c3         1 OQ5       0.073600
     37 C37         60.3810     2.1700    29.5130 c          1 OQ5       0.604100
     38 O38         59.3480     2.8030    29.6950 o          1 OQ5      -0.627100
     39 N39         61.6180     2.6820    29.8210 ns         1 OQ5      -0.485900
     40 C40         61.8830     4.0250    30.3390 c3         1 OQ5       0.110000
     41 C41         63.3800     4.3750    30.2320 c3         1 OQ5       0.139600
     42 O42         64.1020     3.5510    31.1730 os         1 OQ5      -0.458000
     43 C43         65.5100     3.3790    30.9050 c3         1 OQ5       0.133600
     44 C44         65.7370     2.0180    30.1850 c3         1 OQ5       0.127600
     45 O45         65.1230     1.9980    28.8780 os         1 OQ5      -0.436000
     46 C46         65.7670     2.7980    27.8540 c3         1 OQ5       0.067600
     47 C47         65.0420     2.6460    26.4900 c          1 OQ5       0.607100
     48 O48         64.4040     3.5860    26.0270 o          1 OQ5      -0.619100
     49 N49         65.1230     1.4100    25.7930 n          1 OQ5      -0.387800
     50 C50         55.7930    -1.2620    25.3090 c3         1 OQ5      -0.206400
     51 C51         54.4620    -1.9560    24.9630 c          1 OQ5       0.716000
     52 O52         54.4520    -3.1740    24.8760 o          1 OQ5      -0.747500
     53 O53         53.4860    -1.2550    24.7440 o          1 OQ5      -0.747500
     54 C54         64.3080     1.1650    24.5810 c3         1 OQ5       0.091500
     55 C55         66.0580     0.3310    26.1950 c3         1 OQ5       0.091500
     56 C56         63.0670     0.3050    24.8740 c3         1 OQ5      -0.117600
     57 C57         67.4200     0.4280    25.4870 c3         1 OQ5      -0.117600
     58 H1          62.1190     1.5660    21.9430 hc         1 OQ5       0.053700
     59 H2          61.3310     0.5380    20.7430 hc         1 OQ5       0.053700
     60 H3          62.7850     1.7640    18.9590 hc         1 OQ5       0.048700
     61 H4          63.2850     2.8460    20.2540 hc         1 OQ5       0.048700
     62 H5          63.3990     6.6210    22.2210 hc         1 OQ5       0.026700
     63 H6          61.9050     7.5390    22.0610 hc         1 OQ5       0.026700
     64 H7          62.4730     7.2640    24.4370 hc         1 OQ5       0.044700
     65 H8          62.6340     5.5250    24.2490 hc         1 OQ5       0.044700
     66 H9          60.1580     5.3430    23.7870 hc         1 OQ5       0.034200
     67 H10         60.0070     7.0850    23.9170 hc         1 OQ5       0.034200
     68 H11         59.2180     5.9600    25.9570 hc         1 OQ5       0.027700
     69 H12         60.5640     7.0260    26.3050 hc         1 OQ5       0.027700
     70 H13         60.6490     4.8620    27.5580 hc         1 OQ5       0.040700
     71 H14         62.0970     5.1870    26.6300 hc         1 OQ5       0.040700
     72 H15         61.5100     2.8230    26.4980 hc         1 OQ5       0.040200
     73 H16         61.4190     3.5380    24.9000 hc         1 OQ5       0.040200
     74 H17         58.8940     3.6750    25.1380 hc         1 OQ5       0.038200
     75 H18         59.0270     2.9130    26.7220 hc         1 OQ5       0.038200
     76 H19         60.0660     0.8850    25.6300 hc         1 OQ5       0.027200
     77 H20         59.9130     1.6650    24.0580 hc         1 OQ5       0.027200
     78 H21         57.4180     1.7150    24.3260 hc         1 OQ5       0.039200
     79 H22         57.5780     0.9570    25.9120 hc         1 OQ5       0.039200
     80 H23         58.5850    -1.0800    24.8550 hc         1 OQ5       0.019700
     81 H24         58.5120    -0.3090    23.2760 hc         1 OQ5       0.019700
     82 H25         60.6120     3.1120    20.6110 hc         1 OQ5       0.037200
     83 H26         60.5380     2.4970    18.9790 hc         1 OQ5       0.037200
     84 H27         64.9340    -2.1770    20.6820 h1         1 OQ5       0.063700
     85 H28         64.8610    -1.6120    23.0520 hc         1 OQ5       0.030200
     86 H29         63.3540    -2.4890    23.2900 hc         1 OQ5       0.030200
     87 H30         64.3500    -5.2500    27.3350 h1         1 OQ5       0.052200
     88 H31         66.0650    -4.9330    27.0340 h1         1 OQ5       0.052200
     89 H32         65.2260    -3.3830    28.7390 h1         1 OQ5       0.026200
     90 H33         65.6580    -2.4660    27.2850 h1         1 OQ5       0.026200
     91 H34         63.6990    -1.5240    29.3460 h1         1 OQ5       0.034700
     92 H35         63.9900    -0.6550    27.8210 h1         1 OQ5       0.034700
     93 H36         61.5760    -1.0400    27.1780 h1         1 OQ5       0.043700
     94 H37         61.3100    -1.8230    28.7590 h1         1 OQ5       0.043700
     95 H38         60.4440     4.9200    18.9170 hc         1 OQ5       0.029200
     96 H39         61.9400     4.4020    18.1580 hc         1 OQ5       0.029200
     97 H40         62.1440     6.4450    19.6400 hc         1 OQ5       0.031200
     98 H41         63.2780     5.1670    20.0410 hc         1 OQ5       0.031200
     99 H42         60.6210     5.5440    21.5140 hc         1 OQ5       0.045200
    100 H43         61.9520     4.4840    21.9860 hc         1 OQ5       0.045200
    101 H44         56.6860    -1.8760    23.4310 hc         1 OQ5       0.038700
    102 H45         56.0110    -0.2540    23.3910 hc         1 OQ5       0.038700
    103 H46         62.1120    -1.4100    20.7760 hn         1 OQ5       0.337500
    104 H47         64.4390    -4.6320    22.9720 hc         1 OQ5       0.085200
    105 H48         65.9740    -3.8380    22.4660 hc         1 OQ5       0.085200
    106 H50         63.9470    -4.8440    25.0960 hn         1 OQ5       0.334500
    107 H51         59.9460     0.7790    27.9340 h1         1 OQ5       0.061700
    108 H52         59.7950     0.0980    29.5730 h1         1 OQ5       0.061700
    109 H53         62.4020     2.0620    29.6400 hn         1 OQ5       0.354500
    110 H54         61.5610     4.0800    31.3870 h1         1 OQ5       0.050700
    111 H55         61.3010     4.7540    29.7620 h1         1 OQ5       0.050700
    112 H56         63.5290     5.4380    30.4630 h1         1 OQ5       0.039200
    113 H57         63.7090     4.2020    29.2000 h1         1 OQ5       0.039200
    114 H58         66.0600     3.3500    31.8540 h1         1 OQ5       0.037200
    115 H59         65.9210     4.2100    30.3170 h1         1 OQ5       0.037200
    116 H60         65.3090     1.2230    30.8090 h1         1 OQ5       0.050700
    117 H61         66.8150     1.8270    30.1070 h1         1 OQ5       0.050700
    118 H62         66.8130     2.4950    27.7240 h1         1 OQ5       0.036700
    119 H63         65.7570     3.8610    28.1210 h1         1 OQ5       0.036700
    120 H64         55.6000    -0.2960    25.7910 hc         1 OQ5       0.014700
    121 H65         56.4310    -1.9320    25.8990 hc         1 OQ5       0.014700
    122 H67         63.9910     2.1150    24.1320 h1         1 OQ5       0.061950
    123 H68         64.9310     0.6520    23.8380 h1         1 OQ5       0.061950
    124 H69         65.6080    -0.6350    25.9350 h1         1 OQ5       0.061950
    125 H70         66.2060     0.3220    27.2810 h1         1 OQ5       0.061950
    126 H71         62.4540     0.1890    23.9740 hc         1 OQ5       0.045867
    127 H72         63.3570    -0.6940    25.2210 hc         1 OQ5       0.045867
    128 H73         62.4550     0.7740    25.6520 hc         1 OQ5       0.045867
    129 H74         68.0720    -0.3940    25.8040 hc         1 OQ5       0.045867
    130 H75         67.2980     0.3670    24.3990 hc         1 OQ5       0.045867
    131 H76         67.9160     1.3750    25.7280 hc         1 OQ5       0.045867
@<TRIPOS>BOND
     1     1     2 1   
     2     1    26 2   
     3     1    27 1   
     4     2     3 1   
     5     2    58 1   
     6     2    59 1   
     7     3    14 1   
     8     3    60 1   
     9     3    61 1   
    10     4     5 1   
    11     4    24 1   
    12     4    62 1   
    13     4    63 1   
    14     5     6 1   
    15     5    64 1   
    16     5    65 1   
    17     6     7 1   
    18     6    66 1   
    19     6    67 1   
    20     7     8 1   
    21     7    68 1   
    22     7    69 1   
    23     8     9 1   
    24     8    70 1   
    25     8    71 1   
    26     9    10 1   
    27     9    72 1   
    28     9    73 1   
    29    10    11 1   
    30    10    74 1   
    31    10    75 1   
    32    11    12 1   
    33    11    76 1   
    34    11    77 1   
    35    12    13 1   
    36    12    78 1   
    37    12    79 1   
    38    13    25 1   
    39    13    80 1   
    40    13    81 1   
    41    14    22 1   
    42    14    82 1   
    43    14    83 1   
    44    15    16 1   
    45    15    27 1   
    46    15    29 1   
    47    15    84 1   
    48    16    28 1   
    49    16    85 1   
    50    16    86 1   
    51    17    28 1   
    52    17    32 1   
    53    17    33 2   
    54    18    19 1   
    55    18    32 1   
    56    18    87 1   
    57    18    88 1   
    58    19    34 1   
    59    19    89 1   
    60    19    90 1   
    61    20    21 1   
    62    20    34 1   
    63    20    91 1   
    64    20    92 1   
    65    21    35 1   
    66    21    93 1   
    67    21    94 1   
    68    22    23 1   
    69    22    95 1   
    70    22    96 1   
    71    23    24 1   
    72    23    97 1   
    73    23    98 1   
    74    24    99 1   
    75    24   100 1   
    76    25    50 1   
    77    25   101 1   
    78    25   102 1   
    79    27   103 1   
    80    28   104 1   
    81    28   105 1   
    82    29    30 1   
    83    29    31 1   
    84    32   106 1   
    85    35    36 1   
    86    36    37 1   
    87    36   107 1   
    88    36   108 1   
    89    37    38 2   
    90    37    39 1   
    91    39    40 1   
    92    39   109 1   
    93    40    41 1   
    94    40   110 1   
    95    40   111 1   
    96    41    42 1   
    97    41   112 1   
    98    41   113 1   
    99    42    43 1   
   100    43    44 1   
   101    43   114 1   
   102    43   115 1   
   103    44    45 1   
   104    44   116 1   
   105    44   117 1   
   106    45    46 1   
   107    46    47 1   
   108    46   118 1   
   109    46   119 1   
   110    47    48 2   
   111    47    49 1   
   112    49    54 1   
   113    49    55 1   
   114    50    51 1   
   115    50   120 1   
   116    50   121 1   
   117    51    52 1   
   118    51    53 1   
   119    54    56 1   
   120    54   122 1   
   121    54   123 1   
   122    55    57 1   
   123    55   124 1   
   124    55   125 1   
   125    56   126 1   
   126    56   127 1   
   127    56   128 1   
   128    57   129 1   
   129    57   130 1   
   130    57   131 1   
@<TRIPOS>SUBSTRUCTURE
     1 OQ5         1 TEMP              0 ****  ****    0 ROOT
