@<TRIPOS>MOLECULE
OQ5
  131   130     1     0     0
SMALL
bcc


@<TRIPOS>ATOM
      1 C1          64.0330    -0.0170    20.7570 c          1 OQ5       0.657100
      2 C2          62.7690     0.7420    20.4050 c3         1 OQ5      -0.165400
      3 C3          62.9950     2.1890    20.0000 c3         1 OQ5      -0.062400
      4 C7          62.4010     6.3010    22.6570 c3         1 OQ5      -0.070400
      5 C8          61.9960     6.1110    24.1160 c3         1 OQ5      -0.078400
      6 C9          60.4890     6.0220    24.3320 c3         1 OQ5      -0.072400
      7 C10         60.0690     5.9840    25.7990 c3         1 OQ5      -0.068400
      8 C11         60.6850     4.8460    26.6140 c3         1 OQ5      -0.073400
      9 C12         60.5150     3.4530    26.0170 c3         1 OQ5      -0.072400
     10 C13         59.0730     2.9820    25.9010 c3         1 OQ5      -0.082400
     11 C14         58.9580     1.5950    25.2800 c3         1 OQ5      -0.077400
     12 C15         57.5360     1.0530    25.2630 c3         1 OQ5      -0.076400
     13 C16         57.4420    -0.3400    24.6510 c3         1 OQ5      -0.074400
     14 C19         61.6770     2.9010    19.7220 c3         1 OQ5      -0.079400
     15 C21         64.9250    -2.2950    21.1030 c3         1 OQ5      -0.039300
     16 C22         64.8190    -2.5230    22.6200 c3         1 OQ5      -0.071400
     17 C24         65.9160    -3.5810    24.6910 c          1 OQ5       0.664100
     18 C30         64.5840    -4.2440    26.6390 c3         1 OQ5       0.107000
     19 C31         64.4600    -3.0680    27.5850 c3         1 OQ5       0.118400
     20 C33         63.1170    -1.2490    28.1570 c3         1 OQ5       0.127400
     21 C34         61.6740    -0.7840    28.1520 c3         1 OQ5       0.141400
     22 C4          61.8260     4.3640    19.3130 c3         1 OQ5      -0.067400
     23 C5          62.5200     5.2590    20.3390 c3         1 OQ5      -0.072400
     24 C6          61.9000     5.1970    21.7310 c3         1 OQ5      -0.078400
     25 C17         56.0270    -0.9070    24.5690 c3         1 OQ5      -0.056400
     26 O18         65.0630     0.5470    21.1130 o          1 OQ5      -0.664100
     27 N20         63.9180    -1.3490    20.6800 ns         1 OQ5      -0.534900
     28 C23         65.9250    -3.4110    23.1850 c3         1 OQ5      -0.154400
     29 C25         64.7230    -3.6240    20.3340 c          1 OQ5       0.924600
     30 O26         65.7420    -4.3060    20.1310 o          1 OQ5      -0.826800
     31 O27         63.5470    -3.9010    20.0220 o          1 OQ5      -0.826800
     32 N28         64.7270    -3.8820    25.2470 ns         1 OQ5      -0.572900
     33 O29         66.9400    -3.4970    25.3570 o          1 OQ5      -0.653100
     34 O32         63.2350    -2.4090    27.3740 os         1 OQ5      -0.407600
     35 O35         61.6760     0.4780    28.7780 os         1 OQ5      -0.434600
     36 C36         60.4170     1.0340    29.0110 c3         1 OQ5       0.050400
     37 C37         60.5570     2.4560    29.5270 c          1 OQ5       0.671100
     38 O38         59.5620     3.0980    29.8390 o          1 OQ5      -0.627100
     39 N39         61.8050     2.9200    29.6030 ns         1 OQ5      -0.552900
     40 C40         62.1370     4.2350    30.1040 c3         1 OQ5       0.110000
     41 C41         63.6300     4.4580    30.0250 c3         1 OQ5       0.116400
     42 O42         64.2670     3.5280    30.8700 os         1 OQ5      -0.411600
     43 C43         65.6260     3.2750    30.5920 c3         1 OQ5       0.110400
     44 C44         65.8080     1.9230    29.9270 c3         1 OQ5       0.104400
     45 O45         65.1420     1.8050    28.6870 os         1 OQ5      -0.389600
     46 C46         65.8220     2.4090    27.6110 c3         1 OQ5       0.044400
     47 C47         64.8630     2.3940    26.4270 c          1 OQ5       0.674100
     48 O48         64.1060     3.3470    26.2770 o          1 OQ5      -0.619100
     49 N49         64.8710     1.3260    25.6100 n          1 OQ5      -0.454800
     50 C50         55.3660    -1.1280    25.9220 c3         1 OQ5      -0.206400
     51 C51         53.9960    -1.8370    25.8950 c          1 OQ5       0.926600
     52 O52         53.6930    -2.4720    24.8640 o          1 OQ5      -0.852800
     53 O53         53.3080    -1.7320    26.9320 o          1 OQ5      -0.852800
     54 C54         63.9650     1.2800    24.4700 c3         1 OQ5       0.091500
     55 C55         65.7560     0.1790    25.7590 c3         1 OQ5       0.091500
     56 C56         62.7070     0.4750    24.7480 c3         1 OQ5      -0.117600
     57 C57         67.0260     0.2940    24.9320 c3         1 OQ5      -0.117600
     58 H1          62.1220     0.7110    21.2910 hc         1 OQ5       0.053700
     59 H2          62.2190     0.2100    19.6230 hc         1 OQ5       0.053700
     60 H3          63.6320     2.2350    19.1110 hc         1 OQ5       0.048700
     61 H4          63.5380     2.7040    20.7950 hc         1 OQ5       0.048700
     62 H5          63.4930     6.3490    22.5970 hc         1 OQ5       0.026700
     63 H6          62.0360     7.2680    22.2930 hc         1 OQ5       0.026700
     64 H7          62.3950     6.9390    24.7120 hc         1 OQ5       0.044700
     65 H8          62.4830     5.2060    24.4950 hc         1 OQ5       0.044700
     66 H9          60.0920     5.1400    23.8200 hc         1 OQ5       0.034200
     67 H10         60.0090     6.8810    23.8520 hc         1 OQ5       0.034200
     68 H11         58.9780     5.9230    25.8510 hc         1 OQ5       0.027700
     69 H12         60.3370     6.9330    26.2730 hc         1 OQ5       0.027700
     70 H13         60.2470     4.8590    27.6160 hc         1 OQ5       0.040700
     71 H14         61.7530     5.0340    26.7560 hc         1 OQ5       0.040700
     72 H15         61.0710     2.7430    26.6380 hc         1 OQ5       0.040200
     73 H16         60.9930     3.4080    25.0320 hc         1 OQ5       0.040200
     74 H17         58.4890     3.6890    25.3030 hc         1 OQ5       0.038200
     75 H18         58.6140     2.9750    26.8960 hc         1 OQ5       0.038200
     76 H19         59.5990     0.8970    25.8320 hc         1 OQ5       0.027200
     77 H20         59.3570     1.6210    24.2600 hc         1 OQ5       0.027200
     78 H21         56.8880     1.7390    24.7060 hc         1 OQ5       0.039200
     79 H22         57.1520     1.0380    26.2880 hc         1 OQ5       0.039200
     80 H23         58.0740    -1.0270    25.2270 hc         1 OQ5       0.019700
     81 H24         57.8730    -0.3090    23.6450 hc         1 OQ5       0.019700
     82 H25         61.0380     2.8260    20.6070 hc         1 OQ5       0.037200
     83 H26         61.1430     2.3690    18.9270 hc         1 OQ5       0.037200
     84 H27         65.9140    -1.8920    20.8720 h1         1 OQ5       0.063700
     85 H28         64.8540    -1.5500    23.1180 hc         1 OQ5       0.030200
     86 H29         63.8290    -2.9440    22.8230 hc         1 OQ5       0.030200
     87 H30         63.7040    -4.8830    26.7300 h1         1 OQ5       0.052200
     88 H31         65.4420    -4.8400    26.9510 h1         1 OQ5       0.052200
     89 H32         64.5240    -3.4420    28.6160 h1         1 OQ5       0.026200
     90 H33         65.3060    -2.3850    27.4400 h1         1 OQ5       0.026200
     91 H34         63.4280    -1.4400    29.1930 h1         1 OQ5       0.034700
     92 H35         63.7590    -0.4460    27.7730 h1         1 OQ5       0.034700
     93 H36         61.2870    -0.7110    27.1280 h1         1 OQ5       0.043700
     94 H37         61.0380    -1.4940    28.6960 h1         1 OQ5       0.043700
     95 H38         60.8290     4.7690    19.1140 hc         1 OQ5       0.029200
     96 H39         62.3700     4.4180    18.3650 hc         1 OQ5       0.029200
     97 H40         62.4850     6.2910    19.9760 hc         1 OQ5       0.031200
     98 H41         63.5830     5.0060    20.4070 hc         1 OQ5       0.031200
     99 H42         60.8100     5.2560    21.6390 hc         1 OQ5       0.045200
    100 H43         62.1120     4.2240    22.1870 hc         1 OQ5       0.045200
    101 H44         56.0590    -1.8570    24.0310 hc         1 OQ5       0.038700
    102 H45         55.4080    -0.2390    23.9590 hc         1 OQ5       0.038700
    103 H46         63.0530    -1.7630    20.3650 hn         1 OQ5       0.337500
    104 H47         65.8710    -4.4090    22.7440 hc         1 OQ5       0.085200
    105 H48         66.8980    -3.0010    22.9120 hc         1 OQ5       0.085200
    106 H50         63.9160    -3.9630    24.6570 hn         1 OQ5       0.334500
    107 H51         59.8090     1.0660    28.0970 h1         1 OQ5       0.061700
    108 H52         59.8460     0.4570    29.7510 h1         1 OQ5       0.061700
    109 H53         62.5580     2.3050    29.3330 hn         1 OQ5       0.354500
    110 H54         61.7930     4.3510    31.1360 h1         1 OQ5       0.050700
    111 H55         61.6400     5.0080    29.5120 h1         1 OQ5       0.050700
    112 H56         63.8490     5.4890    30.3300 h1         1 OQ5       0.039200
    113 H57         63.9590     4.3530    28.9840 h1         1 OQ5       0.039200
    114 H58         66.1780     3.2560    31.5360 h1         1 OQ5       0.037200
    115 H59         66.0690     4.0780    29.9910 h1         1 OQ5       0.037200
    116 H60         65.3900     1.1450    30.5710 h1         1 OQ5       0.050700
    117 H61         66.8810     1.7180    29.8210 h1         1 OQ5       0.050700
    118 H62         66.7730     1.9020    27.4120 h1         1 OQ5       0.036700
    119 H63         66.0550     3.4600    27.8080 h1         1 OQ5       0.036700
    120 H64         55.2540    -0.1800    26.4550 hc         1 OQ5       0.014700
    121 H65         56.0370    -1.7280    26.5510 hc         1 OQ5       0.014700
    122 H67         63.7020     2.2960    24.1810 h1         1 OQ5       0.061950
    123 H68         64.5080     0.8470    23.6290 h1         1 OQ5       0.061950
    124 H69         65.1960    -0.7070    25.4520 h1         1 OQ5       0.061950
    125 H70         65.9940     0.0190    26.8080 h1         1 OQ5       0.061950
    126 H71         62.0730     0.4570    23.8600 hc         1 OQ5       0.045867
    127 H72         62.9330    -0.5590    25.0130 hc         1 OQ5       0.045867
    128 H73         62.1290     0.9160    25.5590 hc         1 OQ5       0.045867
    129 H74         67.6310    -0.6050    25.0480 hc         1 OQ5       0.045867
    130 H75         66.8040     0.4070    23.8700 hc         1 OQ5       0.045867
    131 H76         67.6260     1.1490    25.2460 hc         1 OQ5       0.045867
@<TRIPOS>BOND
     1     1     2 1   
     2     1    26 2   
     3     1    27 1   
     4     2     3 1   
     5     2    58 1   
     6     2    59 1   
     7     3    14 1   
     8     3    60 1   
     9     3    61 1   
    10     4     5 1   
    11     4    24 1   
    12     4    62 1   
    13     4    63 1   
    14     5     6 1   
    15     5    64 1   
    16     5    65 1   
    17     6     7 1   
    18     6    66 1   
    19     6    67 1   
    20     7     8 1   
    21     7    68 1   
    22     7    69 1   
    23     8     9 1   
    24     8    70 1   
    25     8    71 1   
    26     9    10 1   
    27     9    72 1   
    28     9    73 1   
    29    10    11 1   
    30    10    74 1   
    31    10    75 1   
    32    11    12 1   
    33    11    76 1   
    34    11    77 1   
    35    12    13 1   
    36    12    78 1   
    37    12    79 1   
    38    13    25 1   
    39    13    80 1   
    40    13    81 1   
    41    14    22 1   
    42    14    82 1   
    43    14    83 1   
    44    15    16 1   
    45    15    27 1   
    46    15    29 1   
    47    15    84 1   
    48    16    28 1   
    49    16    85 1   
    50    16    86 1   
    51    17    28 1   
    52    17    32 1   
    53    17    33 2   
    54    18    19 1   
    55    18    32 1   
    56    18    87 1   
    57    18    88 1   
    58    19    34 1   
    59    19    89 1   
    60    19    90 1   
    61    20    21 1   
    62    20    34 1   
    63    20    91 1   
    64    20    92 1   
    65    21    35 1   
    66    21    93 1   
    67    21    94 1   
    68    22    23 1   
    69    22    95 1   
    70    22    96 1   
    71    23    24 1   
    72    23    97 1   
    73    23    98 1   
    74    24    99 1   
    75    24   100 1   
    76    25    50 1   
    77    25   101 1   
    78    25   102 1   
    79    27   103 1   
    80    28   104 1   
    81    28   105 1   
    82    29    30 1   
    83    29    31 1   
    84    32   106 1   
    85    35    36 1   
    86    36    37 1   
    87    36   107 1   
    88    36   108 1   
    89    37    38 2   
    90    37    39 1   
    91    39    40 1   
    92    39   109 1   
    93    40    41 1   
    94    40   110 1   
    95    40   111 1   
    96    41    42 1   
    97    41   112 1   
    98    41   113 1   
    99    42    43 1   
   100    43    44 1   
   101    43   114 1   
   102    43   115 1   
   103    44    45 1   
   104    44   116 1   
   105    44   117 1   
   106    45    46 1   
   107    46    47 1   
   108    46   118 1   
   109    46   119 1   
   110    47    48 2   
   111    47    49 1   
   112    49    54 1   
   113    49    55 1   
   114    50    51 1   
   115    50   120 1   
   116    50   121 1   
   117    51    52 1   
   118    51    53 1   
   119    54    56 1   
   120    54   122 1   
   121    54   123 1   
   122    55    57 1   
   123    55   124 1   
   124    55   125 1   
   125    56   126 1   
   126    56   127 1   
   127    56   128 1   
   128    57   129 1   
   129    57   130 1   
   130    57   131 1   
@<TRIPOS>SUBSTRUCTURE
     1 OQ5         1 TEMP              0 ****  ****    0 ROOT
