@<TRIPOS>MOLECULE
OQ6
   65    70     1     0     0
SMALL
abcg2


@<TRIPOS>ATOM
      1 C1          40.4220     0.2640     3.4170 c3         1 OQ6       0.171900
      2 C10         36.0820     0.9440    -2.2950 ca         1 OQ6      -0.082500
      3 C11         36.7720     0.3410    -1.2580 ca         1 OQ6      -0.145000
      4 C12         35.4160     2.9670    -3.6000 cc         1 OQ6      -0.164000
      5 C13         35.5900     4.2640    -4.1430 cc         1 OQ6       0.264900
      6 C16         34.3470     2.4520    -4.3210 cd         1 OQ6      -0.116000
      7 C17         32.8820     3.3120    -6.1860 c3         1 OQ6       0.169600
      8 C18         33.4410     3.3600    -7.6100 c3         1 OQ6      -0.052400
      9 C19         34.4250     2.2450    -7.8610 cx         1 OQ6      -0.129700
     10 C20         34.5520     1.6550    -9.2370 cx         1 OQ6      -0.130900
     11 C21         33.9220     0.8520    -8.1260 cx         1 OQ6      -0.130900
     12 C22         31.8460     4.3630    -5.8890 ca         1 OQ6      -0.124600
     13 C23         31.7130     5.5580    -6.5730 ca         1 OQ6      -0.054000
     14 C24         30.7710     6.5020    -6.2030 ca         1 OQ6      -0.113000
     15 C25         29.9430     6.2320    -5.1150 cp         1 OQ6      -0.014000
     16 C26         30.0790     5.0230    -4.4620 ca         1 OQ6      -0.175000
     17 C29         28.9230     7.1970    -4.6410 cp         1 OQ6      -0.007000
     18 C3          39.1100     0.9020     1.5540 c          1 OQ6       0.641100
     19 C30         27.5920     6.8000    -4.5270 ca         1 OQ6      -0.083000
     20 C31         26.6270     7.7080    -4.1150 ca         1 OQ6       0.130000
     21 C33         26.9510     9.0200    -3.8010 ca         1 OQ6      -0.084000
     22 C34         28.2760     9.4180    -3.8900 ca         1 OQ6      -0.094000
     23 C35         29.2460     8.5160    -4.3040 ca         1 OQ6       0.013800
     24 C37         31.1510     9.9690    -5.0440 cc         1 OQ6       0.395400
     25 C6          37.5820     1.0970    -0.4030 ca         1 OQ6      -0.017000
     26 C7          37.6850     2.4730    -0.6180 ca         1 OQ6      -0.145000
     27 C8          36.9830     3.0650    -1.6610 ca         1 OQ6      -0.082500
     28 C9          36.1650     2.3240    -2.5200 ca         1 OQ6      -0.001000
     29 N14         34.7100     4.5180    -5.1060 nd         1 OQ6      -0.535800
     30 N15         33.9590     3.4020    -5.1970 na         1 OQ6       0.117800
     31 N27         31.0080     4.1040    -4.8340 na         1 OQ6       0.451300
     32 N36         30.6010     8.9570    -4.3510 na         1 OQ6      -0.016500
     33 N38         32.4370    10.0100    -4.7770 nd         1 OQ6      -0.378000
     34 N39         32.6650     8.9990    -3.9000 nd         1 OQ6      -0.031000
     35 N40         31.5810     8.3630    -3.6340 nc         1 OQ6      -0.175800
     36 N5          38.2360     0.4120     0.6340 ns         1 OQ6      -0.138000
     37 O2          39.4820    -0.0930     2.3890 os         1 OQ6      -0.468100
     38 O28         31.0990     2.9980    -4.1720 o          1 OQ6      -0.523000
     39 O4          39.5130     2.0470     1.6390 o          1 OQ6      -0.522000
     40 CL32        24.9680     7.1840    -3.9960 cl         1 OQ6      -0.179000
     41 H1          40.5970    -0.6500     3.9760 h1         1 OQ6       0.051033
     42 H2          41.3520     0.6210     2.9750 h1         1 OQ6       0.051033
     43 H3          40.0040     1.0320     4.0660 h1         1 OQ6       0.051033
     44 H4          35.4720     0.3270    -2.9430 ha         1 OQ6       0.113500
     45 H5          36.6880    -0.7280    -1.1060 ha         1 OQ6       0.128500
     46 H6          36.3220     5.0100    -3.8760 h4         1 OQ6       0.039100
     47 H7          33.8330     1.5090    -4.2620 h4         1 OQ6       0.161000
     48 H8          32.4220     2.3400    -6.0200 h1         1 OQ6       0.099700
     49 H9          33.9220     4.3230    -7.7920 hc         1 OQ6       0.059700
     50 H10         32.6010     3.2760    -8.3030 hc         1 OQ6       0.059700
     51 H11         35.3440     2.3150    -7.2910 hc         1 OQ6       0.093700
     52 H12         33.8990     2.0420   -10.0090 hc         1 OQ6       0.072200
     53 H13         35.5370     1.3670    -9.5810 hc         1 OQ6       0.072200
     54 H14         32.8490     0.7080    -8.1580 hc         1 OQ6       0.072200
     55 H15         34.4780     0.0190    -7.7160 hc         1 OQ6       0.072200
     56 H16         32.3700     5.7510    -7.4070 ha         1 OQ6       0.145000
     57 H17         30.6810     7.4290    -6.7510 ha         1 OQ6       0.131000
     58 H18         29.4850     4.7340    -3.6090 h4         1 OQ6       0.175000
     59 H19         27.3100     5.7890    -4.7850 ha         1 OQ6       0.146000
     60 H20         26.1880     9.7150    -3.4810 ha         1 OQ6       0.144000
     61 H21         28.5620    10.4260    -3.6210 ha         1 OQ6       0.138000
     62 H23         38.3010     3.0750     0.0290 ha         1 OQ6       0.128500
     63 H24         37.0680     4.1360    -1.7920 ha         1 OQ6       0.113500
     64 H25         38.0330    -0.5740     0.7140 hn         1 OQ6       0.164000
     65 H22         30.6020    10.6130    -5.7100 h5         1 OQ6       0.076100
@<TRIPOS>BOND
     1     1    37 1   
     2     1    41 1   
     3     1    42 1   
     4     1    43 1   
     5     2     3 ar  
     6     2    28 ar  
     7     2    44 1   
     8     3    25 ar  
     9     3    45 1   
    10     4     5 1   
    11     4     6 2   
    12     4    28 1   
    13     5    29 2   
    14     5    46 1   
    15     6    30 1   
    16     6    47 1   
    17     7     8 1   
    18     7    12 1   
    19     7    30 1   
    20     7    48 1   
    21     8     9 1   
    22     8    49 1   
    23     8    50 1   
    24     9    10 1   
    25     9    11 1   
    26     9    51 1   
    27    10    11 1   
    28    10    52 1   
    29    10    53 1   
    30    11    54 1   
    31    11    55 1   
    32    12    13 ar  
    33    12    31 2   
    34    13    14 ar  
    35    13    56 1   
    36    14    15 ar  
    37    14    57 1   
    38    15    16 ar  
    39    15    17 1   
    40    16    31 1   
    41    16    58 1   
    42    17    19 ar  
    43    17    23 ar  
    44    18    36 1   
    45    18    37 1   
    46    18    39 2   
    47    19    20 ar  
    48    19    59 1   
    49    20    21 ar  
    50    20    40 1   
    51    21    22 ar  
    52    21    60 1   
    53    22    23 ar  
    54    22    61 1   
    55    23    32 1   
    56    24    32 1   
    57    24    33 2   
    58    24    65 1   
    59    25    26 ar  
    60    25    36 1   
    61    26    27 ar  
    62    26    62 1   
    63    27    28 ar  
    64    27    63 1   
    65    29    30 1   
    66    31    38 1   
    67    32    35 1   
    68    33    34 1   
    69    34    35 2   
    70    36    64 1   
@<TRIPOS>SUBSTRUCTURE
     1 OQ6         1 TEMP              0 ****  ****    0 ROOT
