@<TRIPOS>MOLECULE
OQ6
   65    70     1     0     0
SMALL
No Charge or Current Charge


@<TRIPOS>ATOM
      1 C1          40.8410     0.1980     3.3330 c3         1 OQ6       0.171900
      2 C10         35.8360     1.2510    -1.8880 ca         1 OQ6      -0.082500
      3 C11         36.5360     0.6840    -0.8090 ca         1 OQ6      -0.145000
      4 C12         35.5760     3.0600    -3.6210 cc         1 OQ6      -0.164000
      5 C13         35.8640     4.2290    -4.3450 cc         1 OQ6       0.264900
      6 C16         34.4390     2.5380    -4.1670 cd         1 OQ6      -0.116000
      7 C17         32.9350     3.3000    -6.1000 c3         1 OQ6       0.169600
      8 C18         33.3250     3.2420    -7.6030 c3         1 OQ6      -0.052400
      9 C19         34.1940     2.0360    -7.9560 cx         1 OQ6      -0.129700
     10 C20         34.1550     1.4280    -9.3380 cx         1 OQ6      -0.130900
     11 C21         33.5830     0.6700    -8.1610 cx         1 OQ6      -0.130900
     12 C22         31.8710     4.3700    -5.8030 ca         1 OQ6      -0.124600
     13 C23         32.0480     5.6950    -6.2400 ca         1 OQ6      -0.054000
     14 C24         31.0670     6.6480    -5.9580 ca         1 OQ6      -0.113000
     15 C25         29.9010     6.2910    -5.2460 cp         1 OQ6      -0.014000
     16 C26         29.7040     4.9530    -4.8140 ca         1 OQ6      -0.175000
     17 C29         28.8480     7.3120    -4.9580 cp         1 OQ6      -0.007000
     18 C3          39.4940     0.9920     1.5030 c          1 OQ6       0.641100
     19 C30         27.5430     7.1240    -5.4750 ca         1 OQ6      -0.083000
     20 C31         26.5240     8.0640    -5.2400 ca         1 OQ6       0.130000
     21 C33         26.7790     9.2160    -4.4770 ca         1 OQ6      -0.084000
     22 C34         28.0580     9.4290    -3.9380 ca         1 OQ6      -0.094000
     23 C35         29.0710     8.4830    -4.1750 ca         1 OQ6       0.013800
     24 C37         31.2500     9.5790    -3.9790 cc         1 OQ6       0.395400
     25 C6          37.6990     1.2920    -0.3050 ca         1 OQ6      -0.017000
     26 C7          38.1530     2.4850    -0.9040 ca         1 OQ6      -0.145000
     27 C8          37.4530     3.0520    -1.9840 ca         1 OQ6      -0.082500
     28 C9          36.2860     2.4450    -2.4910 ca         1 OQ6      -0.001000
     29 N14         35.0020     4.4870    -5.3060 nd         1 OQ6      -0.535800
     30 N15         34.1050     3.4240    -5.1990 na         1 OQ6       0.117800
     31 N27         30.7320     4.0350    -5.0510 na         1 OQ6       0.451300
     32 N36         30.3550     8.6070    -3.6430 na         1 OQ6      -0.016500
     33 N38         32.2760     9.4090    -3.1650 nd         1 OQ6      -0.378000
     34 N39         31.9540     8.3480    -2.3350 nd         1 OQ6      -0.031000
     35 N40         30.7650     7.8630    -2.5950 nc         1 OQ6      -0.175800
     36 N5          38.3560     0.6640     0.7880 ns         1 OQ6      -0.138000
     37 O2          39.6980     0.0440     2.4700 os         1 OQ6      -0.468100
     38 O28         30.6300     2.9090    -4.5440 o          1 OQ6      -0.523000
     39 O4          40.2160     1.9630     1.3190 o          1 OQ6      -0.522000
     40 Cl32        24.9190     7.7960    -5.9090 cl         1 OQ6      -0.179000
     41 H1          40.8850    -0.6250     4.0580 h1         1 OQ6       0.051033
     42 H2          41.7740     0.1910     2.7540 h1         1 OQ6       0.051033
     43 H3          40.7860     1.1400     3.8930 h1         1 OQ6       0.051033
     44 H4          34.9420     0.7480    -2.2460 ha         1 OQ6       0.113500
     45 H5          36.1670    -0.2370    -0.3620 ha         1 OQ6       0.128500
     46 H6          36.6910     4.9100    -4.1970 h4         1 OQ6       0.039100
     47 H7          33.8530     1.6570    -3.9350 h4         1 OQ6       0.161000
     48 H8          32.5000     2.3160    -5.8880 h1         1 OQ6       0.099700
     49 H9          33.8520     4.1600    -7.8890 hc         1 OQ6       0.059700
     50 H10         32.4030     3.2200    -8.1970 hc         1 OQ6       0.059700
     51 H11         35.1680     2.0670    -7.4710 hc         1 OQ6       0.093700
     52 H12         33.4560     1.8400   -10.0620 hc         1 OQ6       0.072200
     53 H13         35.0920     1.0730    -9.7620 hc         1 OQ6       0.072200
     54 H14         32.5010     0.5770    -8.0970 hc         1 OQ6       0.072200
     55 H15         34.1360    -0.1910    -7.7940 hc         1 OQ6       0.072200
     56 H16         32.9400     5.9900    -6.7900 ha         1 OQ6       0.145000
     57 H17         31.2010     7.6710    -6.3020 ha         1 OQ6       0.131000
     58 H18         28.8270     4.6220    -4.2620 h4         1 OQ6       0.175000
     59 H19         27.3250     6.2440    -6.0730 ha         1 OQ6       0.146000
     60 H20         25.9840     9.9360    -4.3000 ha         1 OQ6       0.144000
     61 H21         28.2570    10.3120    -3.3330 ha         1 OQ6       0.138000
     62 H23         39.0460     2.9910    -0.5500 ha         1 OQ6       0.128500
     63 H24         37.8280     3.9720    -2.4240 ha         1 OQ6       0.113500
     64 H25         37.9090    -0.1850     1.1080 hn         1 OQ6       0.164000
     65 H22         31.1100    10.3150    -4.7610 h5         1 OQ6       0.076100
@<TRIPOS>BOND
     1     1    37 1   
     2     1    41 1   
     3     1    42 1   
     4     1    43 1   
     5     2     3 ar  
     6     2    28 ar  
     7     2    44 1   
     8     3    25 ar  
     9     3    45 1   
    10     4     5 1   
    11     4     6 2   
    12     4    28 1   
    13     5    29 2   
    14     5    46 1   
    15     6    30 1   
    16     6    47 1   
    17     7     8 1   
    18     7    12 1   
    19     7    30 1   
    20     7    48 1   
    21     8     9 1   
    22     8    49 1   
    23     8    50 1   
    24     9    10 1   
    25     9    11 1   
    26     9    51 1   
    27    10    11 1   
    28    10    52 1   
    29    10    53 1   
    30    11    54 1   
    31    11    55 1   
    32    12    13 ar  
    33    12    31 2   
    34    13    14 ar  
    35    13    56 1   
    36    14    15 ar  
    37    14    57 1   
    38    15    16 ar  
    39    15    17 1   
    40    16    31 1   
    41    16    58 1   
    42    17    19 ar  
    43    17    23 ar  
    44    18    36 1   
    45    18    37 1   
    46    18    39 2   
    47    19    20 ar  
    48    19    59 1   
    49    20    21 ar  
    50    20    40 1   
    51    21    22 ar  
    52    21    60 1   
    53    22    23 ar  
    54    22    61 1   
    55    23    32 1   
    56    24    32 1   
    57    24    33 2   
    58    24    65 1   
    59    25    26 ar  
    60    25    36 1   
    61    26    27 ar  
    62    26    62 1   
    63    27    28 ar  
    64    27    63 1   
    65    29    30 1   
    66    31    38 1   
    67    32    35 1   
    68    33    34 1   
    69    34    35 2   
    70    36    64 1   
@<TRIPOS>SUBSTRUCTURE
     1 OQ6         1 TEMP              0 ****  ****    0 ROOT
