@<TRIPOS>MOLECULE
OQ7
   90    94     1     0     0
SMALL
abcg2


@<TRIPOS>ATOM
      1 C10         70.6730    52.2990    15.0590 c5         1 OQ7      -0.098400
      2 C13         69.2020    52.6550    15.2570 c5         1 OQ7      -0.146700
      3 C17         68.8000    54.1380    15.2300 c5         1 OQ7       0.162300
      4 C20         69.1540    59.4600    21.3900 ca         1 OQ7      -0.107000
      5 C21         69.7950    60.5870    20.8940 ca         1 OQ7      -0.109000
      6 C22         69.9910    60.7350    19.5260 ca         1 OQ7      -0.097000
      7 C01         73.3890    61.2440    20.9200 c          1 OQ7       0.643100
      8 C03         74.5720    53.3910    16.4840 ca         1 OQ7      -0.111500
      9 C04         74.4890    52.3820    15.5320 ca         1 OQ7      -0.112000
     10 C05         76.6030    59.9530    19.2070 c5         1 OQ7      -0.076400
     11 C06         77.5970    59.9040    18.0330 c5         1 OQ7      -0.080400
     12 C07         77.1350    58.7230    17.1820 c5         1 OQ7      -0.080400
     13 C08         75.6170    58.8100    17.2780 c5         1 OQ7      -0.076400
     14 C09         72.8470    62.3160    22.9410 c3         1 OQ7       0.169900
     15 C11         70.7810    52.1300    13.5500 c5         1 OQ7       0.153600
     16 C14         68.5270    52.0630    13.9950 c5         1 OQ7       0.372300
     17 C16         67.5550    54.0940    14.3650 c5         1 OQ7       0.152600
     18 C18         68.9080    58.6340    19.1430 ca         1 OQ7      -0.097000
     19 C19         68.7100    58.4820    20.5080 ca         1 OQ7      -0.109000
     20 C23         69.5500    59.7610    18.6340 ca         1 OQ7      -0.084300
     21 C25         75.3650    59.1400    18.7540 c5         1 OQ7      -0.078700
     22 C27         74.0500    59.8780    18.9900 c3         1 OQ7       0.056700
     23 C29         72.8860    59.0810    18.3990 c          1 OQ7       0.580100
     24 C30         74.0290    54.0370    13.8480 ca         1 OQ7      -0.101500
     25 C31         74.2190    52.7100    14.2120 ca         1 OQ7      -0.111500
     26 C32         74.3880    54.7150    16.1140 ca         1 OQ7      -0.101500
     27 C33         74.1160    55.0580    14.7900 ca         1 OQ7      -0.084300
     28 C35         73.9130    56.4930    14.3930 c3         1 OQ7      -0.046100
     29 C40         72.6140    57.0840    14.9570 c3         1 OQ7       0.132700
     30 C41         72.4840    58.5710    14.6240 c3         1 OQ7       0.163300
     31 C42         69.8020    59.8890    17.1600 c3         1 OQ7      -0.044100
     32 C43         71.2300    59.2230    15.2010 c3         1 OQ7      -0.122400
     33 C44         71.0730    59.1480    16.7180 c3         1 OQ7       0.105700
     34 N26         73.8270    60.0800    20.4010 ns         1 OQ7      -0.489900
     35 N39         71.4680    56.3370    14.4900 ns         1 OQ7      -0.493900
     36 N45         72.2370    59.6860    17.3930 ns         1 OQ7      -0.499900
     37 O02         73.2280    61.1370    22.2420 os         1 OQ7      -0.452100
     38 O12         69.5250    51.5830    13.1600 os         1 OQ7      -0.442000
     39 O15         67.8250    53.1200    13.3800 os         1 OQ7      -0.458000
     40 O24         73.1810    62.2620    20.2920 o          1 OQ7      -0.555000
     41 O28         72.6150    57.9680    18.8250 o          1 OQ7      -0.585100
     42 O34         70.7600    55.5200    16.4970 o          1 OQ7      -0.539000
     43 O36         72.4910    58.6830    13.2150 oh         1 OQ7      -0.666000
     44 O37         69.7540    54.9560    14.5580 os         1 OQ7      -0.454100
     45 H102        70.8850    51.3500    15.5540 hc         1 OQ7       0.066700
     46 H101        71.3770    53.0260    15.4590 hc         1 OQ7       0.066700
     47 H131        68.7990    52.2060    16.1660 hc         1 OQ7       0.076700
     48 H171        68.5970    54.5330    16.2250 h1         1 OQ7       0.084700
     49 H201        68.9980    59.3460    22.4550 ha         1 OQ7       0.110000
     50 H211        70.1320    61.3610    21.5720 ha         1 OQ7       0.110000
     51 H221        70.4890    61.6200    19.1510 ha         1 OQ7       0.113500
     52 H031        74.7840    53.1460    17.5170 ha         1 OQ7       0.113000
     53 H041        74.6360    51.3480    15.8190 ha         1 OQ7       0.112000
     54 H051        77.0370    59.5160    20.1070 hc         1 OQ7       0.045950
     55 H052        76.3390    60.9820    19.4610 hc         1 OQ7       0.045950
     56 H062        78.6320    59.8150    18.3640 hc         1 OQ7       0.045700
     57 H061        77.5290    60.8220    17.4440 hc         1 OQ7       0.045700
     58 H071        77.4800    57.7820    17.6190 hc         1 OQ7       0.045700
     59 H072        77.5030    58.7610    16.1550 hc         1 OQ7       0.045700
     60 H081        75.2500    59.6190    16.6360 hc         1 OQ7       0.045950
     61 H082        75.1110    57.8950    16.9660 hc         1 OQ7       0.045950
     62 H091        72.7730    62.0310    23.9870 h1         1 OQ7       0.047700
     63 H092        73.5930    63.1050    22.8390 h1         1 OQ7       0.047700
     64 H093        71.8810    62.6950    22.6070 h1         1 OQ7       0.047700
     65 H111        71.5620    51.4310    13.2500 h1         1 OQ7       0.054200
     66 H112        70.9740    53.0840    13.0490 h1         1 OQ7       0.054200
     67 H141        67.8380    51.2380    14.2070 h2         1 OQ7       0.078700
     68 H161        67.3280    55.0450    13.8810 h1         1 OQ7       0.059700
     69 H162        66.6950    53.8130    14.9850 h1         1 OQ7       0.059700
     70 H181        68.5600    57.8660    18.4620 ha         1 OQ7       0.113500
     71 H191        68.2070    57.6000    20.8840 ha         1 OQ7       0.110000
     72 H251        75.3280    58.2000    19.3130 hc         1 OQ7       0.068700
     73 H271        74.1180    60.8600    18.5180 h1         1 OQ7       0.081700
     74 H301        73.8190    54.2840    12.8130 ha         1 OQ7       0.114000
     75 H311        74.1530    51.9320    13.4610 ha         1 OQ7       0.113000
     76 H321        74.4600    55.4930    16.8670 ha         1 OQ7       0.114000
     77 H351        74.7480    57.1000    14.7560 hc         1 OQ7       0.059200
     78 H352        73.9160    56.5770    13.3050 hc         1 OQ7       0.059200
     79 H401        72.6460    56.9900    16.0440 h1         1 OQ7       0.098700
     80 H411        73.3680    59.0660    15.0520 h1         1 OQ7       0.038700
     81 H422        69.8890    60.9410    16.8760 hc         1 OQ7       0.049200
     82 H421        68.9590    59.4770    16.5990 hc         1 OQ7       0.049200
     83 H431        71.2270    60.2780    14.8990 hc         1 OQ7       0.052200
     84 H432        70.3460    58.7700    14.7450 hc         1 OQ7       0.052200
     85 H441        70.9810    58.1070    17.0270 h1         1 OQ7       0.107700
     86 H261        73.9220    59.2820    21.0110 hn         1 OQ7       0.341500
     87 H391        71.3040    56.3050    13.4950 hn         1 OQ7       0.335500
     88 H451        72.5050    60.6300    17.1590 hn         1 OQ7       0.310500
     89 H361        72.4540    59.6150    12.9790 ho         1 OQ7       0.446000
     90 C38         70.6770    55.6000    15.2880 c          1 OQ7       0.636100
@<TRIPOS>BOND
     1     1     2 1   
     2     1    15 1   
     3     1    45 1   
     4     1    46 1   
     5     2     3 1   
     6     2    16 1   
     7     2    47 1   
     8     3    17 1   
     9     3    44 1   
    10     3    48 1   
    11     4     5 ar  
    12     4    19 ar  
    13     4    49 1   
    14     5     6 ar  
    15     5    50 1   
    16     6    20 ar  
    17     6    51 1   
    18     7    34 1   
    19     7    37 1   
    20     7    40 2   
    21     8     9 ar  
    22     8    26 ar  
    23     8    52 1   
    24     9    25 ar  
    25     9    53 1   
    26    10    11 1   
    27    10    21 1   
    28    10    54 1   
    29    10    55 1   
    30    11    12 1   
    31    11    56 1   
    32    11    57 1   
    33    12    13 1   
    34    12    58 1   
    35    12    59 1   
    36    13    21 1   
    37    13    60 1   
    38    13    61 1   
    39    14    37 1   
    40    14    62 1   
    41    14    63 1   
    42    14    64 1   
    43    15    38 1   
    44    15    65 1   
    45    15    66 1   
    46    16    38 1   
    47    16    39 1   
    48    16    67 1   
    49    17    39 1   
    50    17    68 1   
    51    17    69 1   
    52    18    19 ar  
    53    18    20 ar  
    54    18    70 1   
    55    19    71 1   
    56    20    31 1   
    57    21    22 1   
    58    21    72 1   
    59    22    23 1   
    60    22    34 1   
    61    22    73 1   
    62    23    36 1   
    63    23    41 2   
    64    24    25 ar  
    65    24    27 ar  
    66    24    74 1   
    67    25    75 1   
    68    26    27 ar  
    69    26    76 1   
    70    27    28 1   
    71    28    29 1   
    72    28    77 1   
    73    28    78 1   
    74    29    30 1   
    75    29    35 1   
    76    29    79 1   
    77    30    32 1   
    78    30    43 1   
    79    30    80 1   
    80    31    33 1   
    81    31    81 1   
    82    31    82 1   
    83    32    33 1   
    84    32    83 1   
    85    32    84 1   
    86    33    36 1   
    87    33    85 1   
    88    34    86 1   
    89    35    87 1   
    90    35    90 1   
    91    36    88 1   
    92    42    90 2   
    93    43    89 1   
    94    44    90 1   
@<TRIPOS>SUBSTRUCTURE
     1 OQ7         1 TEMP              0 ****  ****    0 ROOT
