@<TRIPOS>MOLECULE
OQ7
   90    94     1     0     0
SMALL
No Charge or Current Charge


@<TRIPOS>ATOM
      1 C10         70.7770    52.2560    15.0530 c5         1 OQ7      -0.098400
      2 C13         69.2240    52.4380    15.2160 c5         1 OQ7      -0.146700
      3 C17         68.7090    53.9160    14.9660 c5         1 OQ7       0.162300
      4 C20         69.4680    60.1340    21.3240 ca         1 OQ7      -0.107000
      5 C21         69.9850    61.2290    20.6130 ca         1 OQ7      -0.109000
      6 C22         70.0400    61.1930    19.2090 ca         1 OQ7      -0.097000
      7 C01         73.7630    60.7410    21.4010 c          1 OQ7       0.643100
      8 C03         74.1320    53.3090    16.8500 ca         1 OQ7      -0.111500
      9 C04         74.2970    52.2670    15.9230 ca         1 OQ7      -0.112000
     10 C05         76.3530    60.5150    19.0640 c5         1 OQ7      -0.076400
     11 C06         77.5900    60.0370    18.2530 c5         1 OQ7      -0.080400
     12 C07         77.0100    59.5780    16.8760 c5         1 OQ7      -0.080400
     13 C08         75.4750    59.7940    16.9980 c5         1 OQ7      -0.076400
     14 C09         73.5880    61.0910    23.7650 c3         1 OQ7       0.169900
     15 C11         70.8960    51.9510    13.5430 c5         1 OQ7       0.153600
     16 C14         68.6480    51.6330    14.0020 c5         1 OQ7       0.372300
     17 C16         67.5650    53.6740    13.9440 c5         1 OQ7       0.152600
     18 C18         69.0640    58.9650    19.2260 ca         1 OQ7      -0.097000
     19 C19         69.0050    59.0030    20.6310 ca         1 OQ7      -0.109000
     20 C23         69.5820    60.0590    18.5070 ca         1 OQ7      -0.084300
     21 C25         75.2320    59.5920    18.5160 c5         1 OQ7      -0.078700
     22 C27         73.8000    59.9400    19.0090 c3         1 OQ7       0.056700
     23 C29         72.7170    59.0910    18.2900 c          1 OQ7       0.580100
     24 C30         74.1820    53.8770    14.1000 ca         1 OQ7      -0.101500
     25 C31         74.3240    52.5520    14.5470 ca         1 OQ7      -0.111500
     26 C32         73.9950    54.6340    16.4040 ca         1 OQ7      -0.101500
     27 C33         74.0170    54.9270    15.0250 ca         1 OQ7      -0.084300
     28 C35         73.8650    56.3670    14.5410 c3         1 OQ7      -0.046100
     29 C40         72.4950    56.9940    14.9030 c3         1 OQ7       0.132700
     30 C41         72.3640    58.4820    14.4430 c3         1 OQ7       0.163300
     31 C42         69.6930    59.9960    16.9860 c3         1 OQ7      -0.044100
     32 C43         71.0940    59.1980    14.9740 c3         1 OQ7      -0.122400
     33 C44         70.9310    59.1940    16.5150 c3         1 OQ7       0.105700
     34 N26         73.6610    59.7520    20.4670 ns         1 OQ7      -0.489900
     35 N39         71.3990    56.1670    14.3820 ns         1 OQ7      -0.493900
     36 N45         72.1420    59.6860    17.1820 ns         1 OQ7      -0.499900
     37 O02         73.5430    60.2050    22.6330 os         1 OQ7      -0.452100
     38 O12         69.7870    51.0590    13.3330 os         1 OQ7      -0.442000
     39 O15         68.0610    52.6040    13.1200 os         1 OQ7      -0.458000
     40 O24         74.0060    61.9130    21.1630 o          1 OQ7      -0.555000
     41 O28         72.3790    57.9810    18.6830 o          1 OQ7      -0.585100
     42 O34         70.4360    55.5210    16.3600 o          1 OQ7      -0.539000
     43 O36         72.3550    58.5590    13.0080 oh         1 OQ7      -0.666000
     44 O37         69.6930    54.7640    14.3050 os         1 OQ7      -0.454100
     45 H102        71.1240    51.3920    15.6320 hc         1 OQ7       0.066700
     46 H101        71.3900    53.0990    15.3790 hc         1 OQ7       0.066700
     47 H131        68.8590    52.0440    16.1700 hc         1 OQ7       0.076700
     48 H171        68.3180    54.4020    15.8710 h1         1 OQ7       0.084700
     49 H201        69.4270    60.1610    22.4110 ha         1 OQ7       0.110000
     50 H211        70.3470    62.1040    21.1480 ha         1 OQ7       0.110000
     51 H221        70.4520    62.0420    18.6670 ha         1 OQ7       0.113500
     52 H031        74.1110    53.0900    17.9160 ha         1 OQ7       0.113000
     53 H041        74.4040    51.2410    16.2690 ha         1 OQ7       0.112000
     54 H051        76.5030    60.4010    20.1430 hc         1 OQ7       0.045950
     55 H052        76.1340    61.5730    18.8760 hc         1 OQ7       0.045950
     56 H062        78.0910    59.2030    18.7580 hc         1 OQ7       0.045700
     57 H061        78.3340    60.8350    18.1440 hc         1 OQ7       0.045700
     58 H071        77.2450    58.5230    16.6920 hc         1 OQ7       0.045700
     59 H072        77.4320    60.1460    16.0400 hc         1 OQ7       0.045700
     60 H081        75.1850    60.8000    16.6690 hc         1 OQ7       0.045950
     61 H082        74.9190    59.0770    16.3850 hc         1 OQ7       0.045950
     62 H091        73.3950    60.5370    24.6920 h1         1 OQ7       0.047700
     63 H092        74.5740    61.5660    23.8520 h1         1 OQ7       0.047700
     64 H093        72.8290    61.8790    23.6760 h1         1 OQ7       0.047700
     65 H111        71.8390    51.4550    13.2770 h1         1 OQ7       0.054200
     66 H112        70.7740    52.8480    12.9190 h1         1 OQ7       0.054200
     67 H141        67.9160    50.8700    14.3000 h2         1 OQ7       0.078700
     68 H161        67.3440    54.5570    13.3300 h1         1 OQ7       0.059700
     69 H162        66.6420    53.3480    14.4430 h1         1 OQ7       0.059700
     70 H181        68.7180    58.0790    18.6980 ha         1 OQ7       0.113500
     71 H191        68.6080    58.1530    21.1810 ha         1 OQ7       0.110000
     72 H251        75.4170    58.5470    18.7980 hc         1 OQ7       0.068700
     73 H271        73.5930    60.9920    18.7720 h1         1 OQ7       0.081700
     74 H301        74.2010    54.0850    13.0330 ha         1 OQ7       0.114000
     75 H311        74.4530    51.7460    13.8280 ha         1 OQ7       0.113000
     76 H321        73.8710    55.4330    17.1320 ha         1 OQ7       0.114000
     77 H351        74.6620    56.9820    14.9770 hc         1 OQ7       0.059200
     78 H352        74.0070    56.4180    13.4540 hc         1 OQ7       0.059200
     79 H401        72.4400    56.9870    15.9980 h1         1 OQ7       0.098700
     80 H411        73.2380    59.0260    14.8250 h1         1 OQ7       0.038700
     81 H422        69.7430    61.0100    16.5720 hc         1 OQ7       0.049200
     82 H421        68.7900    59.5390    16.5630 hc         1 OQ7       0.049200
     83 H431        71.1110    60.2390    14.6280 hc         1 OQ7       0.052200
     84 H432        70.2040    58.7370    14.5270 hc         1 OQ7       0.052200
     85 H441        70.7620    58.1540    16.8270 h1         1 OQ7       0.107700
     86 H261        73.4200    58.8340    20.8200 hn         1 OQ7       0.341500
     87 H391        71.3060    56.0650    13.3810 hn         1 OQ7       0.335500
     88 H451        72.4830    60.6060    16.9310 hn         1 OQ7       0.310500
     89 H361        72.3270    59.5110    12.7690 ho         1 OQ7       0.446000
     90 C38         70.4970    55.4860    15.1420 c          1 OQ7       0.636100
@<TRIPOS>BOND
     1     1     2 1   
     2     1    15 1   
     3     1    45 1   
     4     1    46 1   
     5     2     3 1   
     6     2    16 1   
     7     2    47 1   
     8     3    17 1   
     9     3    44 1   
    10     3    48 1   
    11     4     5 ar  
    12     4    19 ar  
    13     4    49 1   
    14     5     6 ar  
    15     5    50 1   
    16     6    20 ar  
    17     6    51 1   
    18     7    34 1   
    19     7    37 1   
    20     7    40 2   
    21     8     9 ar  
    22     8    26 ar  
    23     8    52 1   
    24     9    25 ar  
    25     9    53 1   
    26    10    11 1   
    27    10    21 1   
    28    10    54 1   
    29    10    55 1   
    30    11    12 1   
    31    11    56 1   
    32    11    57 1   
    33    12    13 1   
    34    12    58 1   
    35    12    59 1   
    36    13    21 1   
    37    13    60 1   
    38    13    61 1   
    39    14    37 1   
    40    14    62 1   
    41    14    63 1   
    42    14    64 1   
    43    15    38 1   
    44    15    65 1   
    45    15    66 1   
    46    16    38 1   
    47    16    39 1   
    48    16    67 1   
    49    17    39 1   
    50    17    68 1   
    51    17    69 1   
    52    18    19 ar  
    53    18    20 ar  
    54    18    70 1   
    55    19    71 1   
    56    20    31 1   
    57    21    22 1   
    58    21    72 1   
    59    22    23 1   
    60    22    34 1   
    61    22    73 1   
    62    23    36 1   
    63    23    41 2   
    64    24    25 ar  
    65    24    27 ar  
    66    24    74 1   
    67    25    75 1   
    68    26    27 ar  
    69    26    76 1   
    70    27    28 1   
    71    28    29 1   
    72    28    77 1   
    73    28    78 1   
    74    29    30 1   
    75    29    35 1   
    76    29    79 1   
    77    30    32 1   
    78    30    43 1   
    79    30    80 1   
    80    31    33 1   
    81    31    81 1   
    82    31    82 1   
    83    32    33 1   
    84    32    83 1   
    85    32    84 1   
    86    33    36 1   
    87    33    85 1   
    88    34    86 1   
    89    35    87 1   
    90    35    90 1   
    91    36    88 1   
    92    42    90 2   
    93    43    89 1   
    94    44    90 1   
@<TRIPOS>SUBSTRUCTURE
     1 OQ7         1 TEMP              0 ****  ****    0 ROOT
