@<TRIPOS>MOLECULE
OQ8
   86    90     1     0     0
SMALL
No Charge or Current Charge


@<TRIPOS>ATOM
      1 C4         -11.7990    -2.2420    16.6520 c3         1 OQ8       0.210100
      2 C5         -10.5880    -3.1600    16.8890 ca         1 OQ8      -0.053300
      3 C6          -9.3480    -3.0340    16.1970 ca         1 OQ8      -0.167300
      4 N1         -12.2230    -1.5050    17.8680 n3         1 OQ8      -0.730600
      5 C7          -9.1190    -1.9420    15.1290 c3         1 OQ8       0.354300
      6 C8         -10.7390    -4.1770    17.8520 ca         1 OQ8      -0.076000
      7 C9          -9.6930    -5.0630    18.1390 ca         1 OQ8      -0.142000
      8 C10         -8.4670    -4.9600    17.4670 ca         1 OQ8      -0.028000
      9 C11         -8.3020    -3.9420    16.5030 ca         1 OQ8      -0.089000
     10 C12         -6.1970    -6.1670    17.2800 c          1 OQ8       0.621700
     11 N3          -1.2570    -9.4050    13.6280 nb         1 OQ8      -0.263000
     12 C13         -5.3980    -7.2490    17.9850 ca         1 OQ8      -0.154600
     13 C14         -5.8880    -7.9340    19.1250 ca         1 OQ8      -0.080000
     14 C15         -5.1140    -8.9250    19.7530 ca         1 OQ8      -0.115000
     15 N4          -0.6300    -8.6880    15.8320 nb         1 OQ8      -0.279000
     16 O2          -5.7470    -5.5910    16.2960 o          1 OQ8      -0.565100
     17 F2          -9.2760    -0.6990    15.6370 f          1 OQ8      -0.113333
     18 F1          -9.9820    -2.0660    14.0940 f          1 OQ8      -0.113333
     19 F           -7.8790    -1.9730    14.5900 f          1 OQ8      -0.113333
     20 C2         -11.1740    -0.5790    18.3950 c6         1 OQ8       0.163800
     21 C1         -11.6340     0.1600    19.6920 c6         1 OQ8       0.165800
     22 N          -12.9140     0.9110    19.5030 n3         1 OQ8      -0.720600
     23 C31        -13.3220     1.6380    20.7300 c3         1 OQ8       0.170800
     24 C32        -14.5170     2.5930    20.5430 c3         1 OQ8      -0.090100
     25 C3         -13.5030    -0.7590    17.6720 c6         1 OQ8       0.163800
     26 C          -13.9650    -0.0150    18.9670 c6         1 OQ8       0.165800
     27 C18         -4.1150    -7.5930    17.4980 ca         1 OQ8      -0.056000
     28 C17         -3.3470    -8.5950    18.1220 ca         1 OQ8       0.081100
     29 C16         -3.8400    -9.2610    19.2620 ca         1 OQ8      -0.045300
     30 C30         -3.0120   -10.3380    19.9520 c3         1 OQ8      -0.053800
     31 O           -2.0940    -8.9110    17.6400 os         1 OQ8      -0.352400
     32 C19         -1.8300    -9.0710    16.3000 ca         1 OQ8       0.391300
     33 C22         -0.4020    -8.8780    14.5190 ca         1 OQ8       0.413900
     34 C21         -2.4540    -9.7980    14.0990 ca         1 OQ8       0.174900
     35 C20         -2.7870    -9.6520    15.4520 ca         1 OQ8      -0.350000
     36 N5           0.8150    -8.4720    13.9700 nu         1 OQ8      -0.918100
     37 C23          1.9760    -8.4650    14.9100 c5         1 OQ8       0.233500
     38 C26          3.2190    -8.5030    13.9900 c5         1 OQ8      -0.110400
     39 C25          4.3040    -7.9260    14.9380 c5         1 OQ8       0.105000
     40 N6           3.5460    -6.8780    15.6550 n          1 OQ8      -0.430800
     41 C24          2.0770    -7.0260    15.5050 c5         1 OQ8       0.084000
     42 C27          4.1700    -5.8640    16.4080 c          1 OQ8       0.610100
     43 O1           5.3910    -5.8310    16.5070 o          1 OQ8      -0.598100
     44 C28          3.2770    -4.8090    17.0930 c3         1 OQ8      -0.155400
     45 C29          4.0180    -3.6620    17.8160 c3         1 OQ8      -0.078100
     46 H1         -11.6080    -1.5290    15.8420 h1         1 OQ8       0.052700
     47 H2         -12.6250    -2.8780    16.3060 h1         1 OQ8       0.052700
     48 H4         -11.6810    -4.2740    18.3870 ha         1 OQ8       0.142000
     49 H5          -7.6900    -6.4680    18.6130 hn         1 OQ8       0.155000
     50 H6          -9.8410    -5.8360    18.8900 ha         1 OQ8       0.114000
     51 H7          -7.3520    -3.8440    15.9880 ha         1 OQ8       0.161000
     52 H8          -6.8670    -7.7100    19.5440 ha         1 OQ8       0.120000
     53 H9          -5.5110    -9.4330    20.6300 ha         1 OQ8       0.124000
     54 H10        -10.2500    -1.1300    18.6210 h1         1 OQ8       0.041950
     55 H11        -10.9200     0.1760    17.6370 h1         1 OQ8       0.041950
     56 H12        -11.7490    -0.5840    20.4950 h1         1 OQ8       0.036950
     57 H13        -10.8340     0.8470    20.0040 h1         1 OQ8       0.036950
     58 H15        -13.5650     0.9230    21.5280 h1         1 OQ8       0.028200
     59 H16        -12.4750     2.2400    21.0870 h1         1 OQ8       0.028200
     60 H17        -14.6780     3.1760    21.4580 hc         1 OQ8       0.037700
     61 H18        -14.3290     3.2920    19.7200 hc         1 OQ8       0.037700
     62 H19        -15.4400     2.0410    20.3320 hc         1 OQ8       0.037700
     63 H20        -13.3900    -0.0190    16.8670 h1         1 OQ8       0.041950
     64 H21        -14.3020    -1.4490    17.3630 h1         1 OQ8       0.041950
     65 H22        -14.8840     0.5380    18.7280 h1         1 OQ8       0.036950
     66 H23        -14.2280    -0.7660    19.7270 h1         1 OQ8       0.036950
     67 H24         -3.7080    -7.0780    16.6310 ha         1 OQ8       0.153000
     68 H25         -2.0600    -9.9300    20.3130 hc         1 OQ8       0.055367
     69 H26         -3.5360   -10.7660    20.8150 hc         1 OQ8       0.055367
     70 H27         -2.7850   -11.1590    19.2630 hc         1 OQ8       0.055367
     71 H28         -3.1490   -10.2360    13.3840 h4         1 OQ8       0.023100
     72 H29         -3.7510    -9.9840    15.8250 ha         1 OQ8       0.146000
     73 H30          0.9410    -8.7420    12.9930 hn         1 OQ8       0.511000
     74 H31          1.9940    -9.2650    15.6680 h1         1 OQ8       0.086700
     75 H32          3.4620    -9.5120    13.6390 hc         1 OQ8       0.058200
     76 H33          3.1080    -7.8600    13.1080 hc         1 OQ8       0.058200
     77 H34          4.6750    -8.6850    15.6400 h1         1 OQ8       0.057700
     78 H35          5.1590    -7.5190    14.3810 h1         1 OQ8       0.057700
     79 H36          1.6830    -6.2650    14.8190 h1         1 OQ8       0.056700
     80 H37          1.5430    -6.9500    16.4610 h1         1 OQ8       0.056700
     81 H38          2.5700    -4.4240    16.3490 hc         1 OQ8       0.057700
     82 H39          2.6010    -5.3360    17.7760 hc         1 OQ8       0.057700
     83 H40          3.3000    -2.9670    18.2670 hc         1 OQ8       0.041367
     84 H41          4.6590    -4.0560    18.6140 hc         1 OQ8       0.041367
     85 H42          4.6440    -3.1000    17.1130 hc         1 OQ8       0.041367
     86 N2          -7.4510    -5.8940    17.8170 ns         1 OQ8      -0.145000
@<TRIPOS>BOND
     1     1     2 1   
     2     1     4 1   
     3     1    46 1   
     4     1    47 1   
     5     2     3 ar  
     6     2     6 ar  
     7     3     5 1   
     8     3     9 ar  
     9     4    20 1   
    10     4    25 1   
    11     5    17 1   
    12     5    18 1   
    13     5    19 1   
    14     6     7 ar  
    15     6    48 1   
    16     7     8 ar  
    17     7    50 1   
    18     8     9 ar  
    19     8    86 1   
    20     9    51 1   
    21    10    12 1   
    22    10    16 2   
    23    10    86 1   
    24    11    33 ar  
    25    11    34 ar  
    26    12    13 ar  
    27    12    27 ar  
    28    13    14 ar  
    29    13    52 1   
    30    14    29 ar  
    31    14    53 1   
    32    15    32 ar  
    33    15    33 ar  
    34    20    21 1   
    35    20    54 1   
    36    20    55 1   
    37    21    22 1   
    38    21    56 1   
    39    21    57 1   
    40    22    23 1   
    41    22    26 1   
    42    23    24 1   
    43    23    58 1   
    44    23    59 1   
    45    24    60 1   
    46    24    61 1   
    47    24    62 1   
    48    25    26 1   
    49    25    63 1   
    50    25    64 1   
    51    26    65 1   
    52    26    66 1   
    53    27    28 ar  
    54    27    67 1   
    55    28    29 ar  
    56    28    31 1   
    57    29    30 1   
    58    30    68 1   
    59    30    69 1   
    60    30    70 1   
    61    31    32 1   
    62    32    35 ar  
    63    33    36 1   
    64    34    35 ar  
    65    34    71 1   
    66    35    72 1   
    67    36    37 1   
    68    36    73 1   
    69    37    38 1   
    70    37    41 1   
    71    37    74 1   
    72    38    39 1   
    73    38    75 1   
    74    38    76 1   
    75    39    40 1   
    76    39    77 1   
    77    39    78 1   
    78    40    41 1   
    79    40    42 1   
    80    41    79 1   
    81    41    80 1   
    82    42    43 2   
    83    42    44 1   
    84    44    45 1   
    85    44    81 1   
    86    44    82 1   
    87    45    83 1   
    88    45    84 1   
    89    45    85 1   
    90    49    86 1   
@<TRIPOS>SUBSTRUCTURE
     1 OQ8         1 TEMP              0 ****  ****    0 ROOT
