@<TRIPOS>MOLECULE
OQ8
   86    90     1     0     0
SMALL
abcg2


@<TRIPOS>ATOM
      1 C4         -11.7300    -1.9790    16.8840 c3         1 OQ8       0.210100
      2 C5         -10.6180    -3.0010    17.0020 ca         1 OQ8      -0.053300
      3 C6          -9.8290    -3.4390    15.9340 ca         1 OQ8      -0.167300
      4 N1         -11.9750    -1.2900    18.1290 n3         1 OQ8      -0.730600
      5 C7         -10.0160    -2.8690    14.5560 c3         1 OQ8       0.354300
      6 C8         -10.3870    -3.5930    18.2400 ca         1 OQ8      -0.076000
      7 C9          -9.4100    -4.5500    18.4230 ca         1 OQ8      -0.142000
      8 C10         -8.6180    -4.9660    17.3570 ca         1 OQ8      -0.028000
      9 C11         -8.8420    -4.4040    16.1040 ca         1 OQ8      -0.089000
     10 C12         -6.5710    -6.2750    16.8560 c          1 OQ8       0.621700
     11 N3          -0.5720   -10.0400    14.0220 nb         1 OQ8      -0.263000
     12 C13         -5.7600    -7.4060    17.3900 ca         1 OQ8      -0.154600
     13 C14         -6.3100    -8.4580    18.1140 ca         1 OQ8      -0.080000
     14 C15         -5.5060    -9.4950    18.5600 ca         1 OQ8      -0.115000
     15 N4          -0.4770    -8.8500    16.0780 nb         1 OQ8      -0.279000
     16 O2          -6.2580    -5.6970    15.8330 o          1 OQ8      -0.565100
     17 F2          -9.6530    -1.5790    14.4950 f          1 OQ8      -0.113333
     18 F1         -11.2940    -2.9330    14.1550 f          1 OQ8      -0.113333
     19 F           -9.2970    -3.5090    13.6300 f          1 OQ8      -0.113333
     20 C2         -10.9280    -0.3360    18.4410 c6         1 OQ8       0.163800
     21 C1         -11.1900     0.3230    19.7800 c6         1 OQ8       0.165800
     22 N          -12.4780     0.9840    19.7870 n3         1 OQ8      -0.720600
     23 C31        -12.7060     1.6890    21.0360 c3         1 OQ8       0.170800
     24 C32        -13.9020     2.6250    20.9940 c3         1 OQ8      -0.090100
     25 C3         -13.2690    -0.6370    18.1410 c6         1 OQ8       0.163800
     26 C          -13.5230     0.0280    19.4800 c6         1 OQ8       0.165800
     27 C18         -4.3990    -7.4220    17.1050 ca         1 OQ8      -0.056000
     28 C17         -3.6150    -8.4580    17.5680 ca         1 OQ8       0.081100
     29 C16         -4.1400    -9.5200    18.3030 ca         1 OQ8      -0.045300
     30 C30         -3.2670   -10.6360    18.7890 c3         1 OQ8      -0.053800
     31 O           -2.2590    -8.4190    17.3290 os         1 OQ8      -0.352400
     32 C19         -1.7780    -8.9790    16.2090 ca         1 OQ8       0.391300
     33 C22          0.0770    -9.3860    14.9920 ca         1 OQ8       0.413900
     34 C21         -1.8780   -10.1470    14.1860 ca         1 OQ8       0.174900
     35 C20         -2.5700    -9.6360    15.2690 ca         1 OQ8      -0.350000
     36 N5           1.4120    -9.2650    14.8510 nu         1 OQ8      -0.918100
     37 C23          2.2560    -8.5380    15.7560 c5         1 OQ8       0.233500
     38 C26          3.7380    -8.7900    15.5050 c5         1 OQ8      -0.110400
     39 C25          4.4160    -7.6380    16.2350 c5         1 OQ8       0.105000
     40 N6           3.4270    -6.5690    16.1800 n          1 OQ8      -0.430800
     41 C24          2.1540    -7.0120    15.6500 c5         1 OQ8       0.084000
     42 C27          3.7340    -5.3190    16.6020 c          1 OQ8       0.610100
     43 O1           4.8350    -5.0560    17.0460 o          1 OQ8      -0.598100
     44 C28          2.6320    -4.2840    16.4830 c3         1 OQ8      -0.155400
     45 C29          3.0800    -2.8960    16.9050 c3         1 OQ8      -0.078100
     46 H1         -11.5380    -1.2620    16.0730 h1         1 OQ8       0.052700
     47 H2         -12.6470    -2.5070    16.6040 h1         1 OQ8       0.052700
     48 H4         -10.9870    -3.2780    19.0840 ha         1 OQ8       0.142000
     49 H5          -7.7180    -6.3810    18.5150 hn         1 OQ8       0.155000
     50 H6          -9.2650    -4.9730    19.4100 ha         1 OQ8       0.114000
     51 H7          -8.2490    -4.7220    15.2640 ha         1 OQ8       0.161000
     52 H8          -7.3720    -8.5070    18.3190 ha         1 OQ8       0.120000
     53 H9          -5.9550   -10.3090    19.1130 ha         1 OQ8       0.124000
     54 H10         -9.9650    -0.8490    18.4820 h1         1 OQ8       0.041950
     55 H11        -10.8470     0.4400    17.6590 h1         1 OQ8       0.041950
     56 H12        -11.1100    -0.4390    20.5750 h1         1 OQ8       0.036950
     57 H13        -10.4070     1.0620    19.9660 h1         1 OQ8       0.036950
     58 H15        -12.8160     0.9880    21.8810 h1         1 OQ8       0.028200
     59 H16        -11.8100     2.2800    21.2450 h1         1 OQ8       0.028200
     60 H17        -13.9350     3.2230    21.9050 hc         1 OQ8       0.037700
     61 H18        -13.8320     3.3050    20.1450 hc         1 OQ8       0.037700
     62 H19        -14.8500     2.0930    20.9270 hc         1 OQ8       0.037700
     63 H20        -13.3560     0.1190    17.3430 h1         1 OQ8       0.041950
     64 H21        -14.0480    -1.3830    17.9650 h1         1 OQ8       0.041950
     65 H22        -14.4880     0.5340    19.4290 h1         1 OQ8       0.036950
     66 H23        -13.6070    -0.7480    20.2620 h1         1 OQ8       0.036950
     67 H24         -3.9480    -6.6160    16.5400 ha         1 OQ8       0.153000
     68 H25         -2.4450   -10.2630    19.4000 hc         1 OQ8       0.055367
     69 H26         -3.8400   -11.3400    19.3880 hc         1 OQ8       0.055367
     70 H27         -2.8260   -11.1930    17.9610 hc         1 OQ8       0.055367
     71 H28         -2.4170   -10.6740    13.4060 h4         1 OQ8       0.023100
     72 H29         -3.6400    -9.7410    15.3560 ha         1 OQ8       0.146000
     73 H30          1.7980    -9.6080    13.9880 hn         1 OQ8       0.511000
     74 H31          2.0080    -8.8290    16.7800 h1         1 OQ8       0.086700
     75 H32          4.0700    -9.7650    15.8600 hc         1 OQ8       0.058200
     76 H33          3.9490    -8.7340    14.4320 hc         1 OQ8       0.058200
     77 H34          4.6450    -7.9000    17.2710 h1         1 OQ8       0.057700
     78 H35          5.3520    -7.3360    15.7650 h1         1 OQ8       0.057700
     79 H36          2.0180    -6.7190    14.6010 h1         1 OQ8       0.056700
     80 H37          1.3070    -6.6260    16.2180 h1         1 OQ8       0.056700
     81 H38          2.2630    -4.2660    15.4520 hc         1 OQ8       0.057700
     82 H39          1.7780    -4.6030    17.0900 hc         1 OQ8       0.057700
     83 H40          2.2580    -2.1880    16.7990 hc         1 OQ8       0.041367
     84 H41          3.4070    -2.8800    17.9430 hc         1 OQ8       0.041367
     85 H42          3.9090    -2.5410    16.2950 hc         1 OQ8       0.041367
     86 N2          -7.6610    -5.9550    17.6040 ns         1 OQ8      -0.145000
@<TRIPOS>BOND
     1     1     2 1   
     2     1     4 1   
     3     1    46 1   
     4     1    47 1   
     5     2     3 ar  
     6     2     6 ar  
     7     3     5 1   
     8     3     9 ar  
     9     4    20 1   
    10     4    25 1   
    11     5    17 1   
    12     5    18 1   
    13     5    19 1   
    14     6     7 ar  
    15     6    48 1   
    16     7     8 ar  
    17     7    50 1   
    18     8     9 ar  
    19     8    86 1   
    20     9    51 1   
    21    10    12 1   
    22    10    16 2   
    23    10    86 1   
    24    11    33 ar  
    25    11    34 ar  
    26    12    13 ar  
    27    12    27 ar  
    28    13    14 ar  
    29    13    52 1   
    30    14    29 ar  
    31    14    53 1   
    32    15    32 ar  
    33    15    33 ar  
    34    20    21 1   
    35    20    54 1   
    36    20    55 1   
    37    21    22 1   
    38    21    56 1   
    39    21    57 1   
    40    22    23 1   
    41    22    26 1   
    42    23    24 1   
    43    23    58 1   
    44    23    59 1   
    45    24    60 1   
    46    24    61 1   
    47    24    62 1   
    48    25    26 1   
    49    25    63 1   
    50    25    64 1   
    51    26    65 1   
    52    26    66 1   
    53    27    28 ar  
    54    27    67 1   
    55    28    29 ar  
    56    28    31 1   
    57    29    30 1   
    58    30    68 1   
    59    30    69 1   
    60    30    70 1   
    61    31    32 1   
    62    32    35 ar  
    63    33    36 1   
    64    34    35 ar  
    65    34    71 1   
    66    35    72 1   
    67    36    37 1   
    68    36    73 1   
    69    37    38 1   
    70    37    41 1   
    71    37    74 1   
    72    38    39 1   
    73    38    75 1   
    74    38    76 1   
    75    39    40 1   
    76    39    77 1   
    77    39    78 1   
    78    40    41 1   
    79    40    42 1   
    80    41    79 1   
    81    41    80 1   
    82    42    43 2   
    83    42    44 1   
    84    44    45 1   
    85    44    81 1   
    86    44    82 1   
    87    45    83 1   
    88    45    84 1   
    89    45    85 1   
    90    49    86 1   
@<TRIPOS>SUBSTRUCTURE
     1 OQ8         1 TEMP              0 ****  ****    0 ROOT
