@<TRIPOS>MOLECULE
OQA
   89    92     1     0     0
SMALL
No Charge or Current Charge


@<TRIPOS>ATOM
      1 C13         22.6810    -3.5380    14.2190 ca         1 OQA      -0.082300
      2 C15         22.4850    -5.9370    13.8030 ca         1 OQA      -0.110000
      3 C17         23.6040    -5.1420    15.8110 ca         1 OQA      -0.110000
      4 C22         23.6960     1.4370    18.8520 c5         1 OQA       0.161300
      5 C24         18.2080     2.2150    19.2640 ca         1 OQA      -0.101500
      6 C26         18.3420     0.9600    21.3460 ca         1 OQA      -0.111000
      7 C28         18.4300    -0.2070    19.2110 ca         1 OQA      -0.101500
      8 C02         19.6050     0.5280    16.3630 c3         1 OQA       0.124700
      9 C04         18.2950     1.0480    16.9990 c3         1 OQA      -0.050100
     10 C05         20.8030    -0.0480    14.1070 c3         1 OQA       0.163300
     11 C06         21.1200    -1.5250    14.5110 c3         1 OQA       0.111700
     12 C09         18.4070    -4.3030    14.6590 c3         1 OQA       0.051700
     13 C11         22.3840    -2.0960    13.8160 c3         1 OQA      -0.038100
     14 C14         22.2460    -4.6080    13.4110 ca         1 OQA      -0.098000
     15 C16         23.1640    -6.2040    15.0030 ca         1 OQA      -0.109000
     16 C18         23.3620    -3.8130    15.4220 ca         1 OQA      -0.098000
     17 C23         18.3130     1.0190    18.5260 ca         1 OQA      -0.087300
     18 C25         18.2190     2.1850    20.6690 ca         1 OQA      -0.111000
     19 C27         18.4470    -0.2360    20.6170 ca         1 OQA      -0.111000
     20 C31         16.9890    -3.9070    15.1880 c3         1 OQA      -0.065700
     21 C35         24.7840     2.5320    18.6830 c5         1 OQA       0.152600
     22 C37         23.9330     2.9660    20.7880 c5         1 OQA       0.370300
     23 C38         23.3550     1.5650    20.3940 c5         1 OQA      -0.147700
     24 C40         21.6400     3.2490    20.6350 c5         1 OQA       0.151600
     25 C41         21.8220     1.7160    20.7100 c5         1 OQA      -0.098400
     26 C42         15.8830    -4.8000    14.5610 c3         1 OQA      -0.087100
     27 C43         16.6880    -2.3890    14.9970 c3         1 OQA      -0.075400
     28 C44         15.3400    -1.9060    15.5770 c3         1 OQA      -0.089100
     29 N01         20.7520     1.2910    16.8600 ns         1 OQA      -0.500900
     30 N07         19.9650    -2.4100    14.2960 ns         1 OQA      -0.491900
     31 N29         18.7490    -5.6910    15.0370 ns         1 OQA      -0.490900
     32 O10         20.5800     0.0360    12.6910 oh         1 OQA      -0.664000
     33 O20         21.9260    -0.4060    17.8670 o          1 OQA      -0.530000
     34 O21         22.5830     1.8080    17.9860 os         1 OQA      -0.454100
     35 O32         19.1920    -7.8560    14.8680 os         1 OQA      -0.453100
     36 O33         18.4800    -6.7180    13.0000 o          1 OQA      -0.552000
     37 O36         24.3500     3.5870    19.5600 os         1 OQA      -0.459000
     38 O39         22.8220     3.7200    21.3070 os         1 OQA      -0.439000
     39 H151        22.1400    -6.7580    13.1780 ha         1 OQA       0.108000
     40 H171        24.1270    -5.3480    16.7420 ha         1 OQA       0.108000
     41 H221        24.0980     0.4520    18.5740 h1         1 OQA       0.085700
     42 H241        18.1160     3.1690    18.7500 ha         1 OQA       0.116000
     43 H261        18.3540     0.9370    22.4340 ha         1 OQA       0.113000
     44 H281        18.5080    -1.1400    18.6570 ha         1 OQA       0.116000
     45 H021        19.7140    -0.5180    16.6810 h1         1 OQA       0.102700
     46 H031        19.4340     1.5920    14.4880 hc         1 OQA       0.050200
     47 H032        18.6620     0.0190    14.4790 hc         1 OQA       0.050200
     48 H042        18.1060     2.0670    16.6400 hc         1 OQA       0.052200
     49 H041        17.4570     0.4410    16.6370 hc         1 OQA       0.052200
     50 H051        21.6760     0.5620    14.3760 h1         1 OQA       0.043700
     51 H061        21.3460    -1.5190    15.5840 h1         1 OQA       0.101700
     52 H091        18.4090    -4.2230    13.5640 h1         1 OQA       0.082700
     53 H112        23.2420    -1.4560    14.0580 hc         1 OQA       0.057200
     54 H111        22.2610    -2.0360    12.7280 hc         1 OQA       0.057200
     55 H141        21.7120    -4.4110    12.4840 ha         1 OQA       0.114000
     56 H161        23.3480    -7.2320    15.3070 ha         1 OQA       0.108000
     57 H181        23.6940    -2.9970    16.0600 ha         1 OQA       0.114000
     58 H251        18.1350     3.1110    21.2330 ha         1 OQA       0.114500
     59 H271        18.5410    -1.1850    21.1390 ha         1 OQA       0.114500
     60 H311        16.9850    -4.0970    16.2690 hc         1 OQA       0.069700
     61 H342        19.6620    -9.8920    14.8020 h1         1 OQA       0.048033
     62 H341        18.3490    -9.3920    13.7150 h1         1 OQA       0.048033
     63 H343        20.0390    -8.9890    13.3190 h1         1 OQA       0.048033
     64 H352        25.7700     2.1730    19.0090 h1         1 OQA       0.060700
     65 H371        24.7630     2.9040    21.5060 h2         1 OQA       0.079700
     66 H381        23.8190     0.7600    20.9740 hc         1 OQA       0.077700
     67 H402        20.7400     3.6020    21.1560 h1         1 OQA       0.053700
     68 H401        21.6270     3.6240    19.6020 h1         1 OQA       0.053700
     69 H411        21.6030     1.3680    21.7250 hc         1 OQA       0.066700
     70 H412        21.1460     1.1640    20.0530 hc         1 OQA       0.066700
     71 H422        14.9030    -4.5940    15.0070 hc         1 OQA       0.038367
     72 H423        15.8130    -4.6310    13.4800 hc         1 OQA       0.038367
     73 H421        16.0870    -5.8630    14.7290 hc         1 OQA       0.038367
     74 H432        17.4690    -1.8030    15.4930 hc         1 OQA       0.038200
     75 H431        16.7300    -2.1350    13.9300 hc         1 OQA       0.038200
     76 H443        15.2760    -0.8130    15.5220 hc         1 OQA       0.035700
     77 H441        14.4940    -2.3170    15.0150 hc         1 OQA       0.035700
     78 H442        15.2410    -2.2000    16.6290 hc         1 OQA       0.035700
     79 H011        20.7620     2.2950    16.7390 hn         1 OQA       0.322500
     80 H071        19.5050    -2.3670    13.3940 hn         1 OQA       0.327500
     81 H291        19.0610    -5.8770    15.9820 hn         1 OQA       0.340500
     82 H101        20.4720     0.9870    12.4710 ho         1 OQA       0.444000
     83 C08         19.5330    -3.3720    15.1870 c          1 OQA       0.574100
     84 C03         19.5580     0.5520    14.8160 c3         1 OQA      -0.122400
     85 C19         21.7780     0.7750    17.5980 c          1 OQA       0.635100
     86 C30         18.7690    -6.7570    14.1860 c          1 OQA       0.642100
     87 O12         20.0120    -3.4850    16.3090 o          1 OQA      -0.594100
     88 H351        24.8640     2.9020    17.6530 h1         1 OQA       0.060700
     89 C34         19.3150    -9.0900    14.1390 c3         1 OQA       0.169900
@<TRIPOS>BOND
     1     1    13 1   
     2     1    14 ar  
     3     1    16 ar  
     4     2    14 ar  
     5     2    15 ar  
     6     2    39 1   
     7     3    15 ar  
     8     3    16 ar  
     9     3    40 1   
    10     4    21 1   
    11     4    23 1   
    12     4    34 1   
    13     4    41 1   
    14     5    17 ar  
    15     5    18 ar  
    16     5    42 1   
    17     6    18 ar  
    18     6    19 ar  
    19     6    43 1   
    20     7    17 ar  
    21     7    19 ar  
    22     7    44 1   
    23     8     9 1   
    24     8    29 1   
    25     8    45 1   
    26     8    84 1   
    27     9    17 1   
    28     9    48 1   
    29     9    49 1   
    30    10    11 1   
    31    10    32 1   
    32    10    50 1   
    33    10    84 1   
    34    11    13 1   
    35    11    30 1   
    36    11    51 1   
    37    12    20 1   
    38    12    31 1   
    39    12    52 1   
    40    12    83 1   
    41    13    53 1   
    42    13    54 1   
    43    14    55 1   
    44    15    56 1   
    45    16    57 1   
    46    18    58 1   
    47    19    59 1   
    48    20    26 1   
    49    20    27 1   
    50    20    60 1   
    51    21    37 1   
    52    21    64 1   
    53    21    88 1   
    54    22    23 1   
    55    22    37 1   
    56    22    38 1   
    57    22    65 1   
    58    23    25 1   
    59    23    66 1   
    60    24    25 1   
    61    24    38 1   
    62    24    67 1   
    63    24    68 1   
    64    25    69 1   
    65    25    70 1   
    66    26    71 1   
    67    26    72 1   
    68    26    73 1   
    69    27    28 1   
    70    27    74 1   
    71    27    75 1   
    72    28    76 1   
    73    28    77 1   
    74    28    78 1   
    75    29    79 1   
    76    29    85 1   
    77    30    80 1   
    78    30    83 1   
    79    31    81 1   
    80    31    86 1   
    81    32    82 1   
    82    33    85 2   
    83    34    85 1   
    84    35    86 1   
    85    35    89 1   
    86    36    86 2   
    87    46    84 1   
    88    47    84 1   
    89    61    89 1   
    90    62    89 1   
    91    63    89 1   
    92    83    87 2   
@<TRIPOS>SUBSTRUCTURE
     1 OQA         1 TEMP              0 ****  ****    0 ROOT
