@<TRIPOS>MOLECULE
OQA
   89    92     1     0     0
SMALL
bcc


@<TRIPOS>ATOM
      1 C13         22.7030    -3.6390    14.4210 ca         1 OQA      -0.082300
      2 C15         22.6210    -6.0560    14.4650 ca         1 OQA      -0.128000
      3 C17         23.6600    -4.8680    16.2730 ca         1 OQA      -0.128000
      4 C22         23.5950     1.1450    18.8370 c5         1 OQA       0.138100
      5 C24         18.2730     2.2800    18.8810 ca         1 OQA      -0.119500
      6 C26         18.0440     1.0650    20.9450 ca         1 OQA      -0.129000
      7 C28         18.1710    -0.1110    18.8480 ca         1 OQA      -0.119500
      8 C02         19.6640     0.4500    16.1310 c3         1 OQA       0.124700
      9 C04         18.3800     1.1050    16.6530 c3         1 OQA      -0.050100
     10 C05         20.8660    -0.2700    13.9570 c3         1 OQA       0.140100
     11 C06         21.1150    -1.6970    14.4480 c3         1 OQA       0.111700
     12 C09         18.1940    -4.1270    14.8040 c3         1 OQA       0.051700
     13 C11         22.3470    -2.3280    13.7820 c3         1 OQA      -0.038100
     14 C14         22.3330    -4.8480    13.8390 ca         1 OQA      -0.116000
     15 C16         23.2830    -6.0690    15.6850 ca         1 OQA      -0.127000
     16 C18         23.3710    -3.6660    15.6440 ca         1 OQA      -0.116000
     17 C23         18.2760     1.0940    18.1530 ca         1 OQA      -0.087300
     18 C25         18.1520     2.2690    20.2650 ca         1 OQA      -0.129000
     19 C27         18.0560    -0.1270    20.2300 ca         1 OQA      -0.129000
     20 C31         16.9980    -3.8810    15.7360 c3         1 OQA      -0.065700
     21 C35         24.7780     2.0780    18.6560 c5         1 OQA       0.129400
     22 C37         23.8400     2.8040    20.6000 c5         1 OQA       0.323900
     23 C38         23.2040     1.4230    20.2970 c5         1 OQA      -0.147700
     24 C40         21.5830     3.1590    20.4920 c5         1 OQA       0.128400
     25 C41         21.7290     1.6510    20.6260 c5         1 OQA      -0.098400
     26 C42         15.8160    -4.7610    15.3420 c3         1 OQA      -0.087100
     27 C43         16.6190    -2.3970    15.7250 c3         1 OQA      -0.075400
     28 C44         15.5800    -2.0150    16.7700 c3         1 OQA      -0.089100
     29 N01         20.8290     1.1480    16.6370 ns         1 OQA      -0.567900
     30 N07         19.9430    -2.5270    14.2690 ns         1 OQA      -0.558900
     31 N29         18.5910    -5.5150    14.8100 ns         1 OQA      -0.557900
     32 O10         20.7030    -0.3330    12.5540 oh         1 OQA      -0.601800
     33 O20         21.7100    -0.5380    17.8920 o          1 OQA      -0.579000
     34 O21         22.5910     1.5380    17.9060 os         1 OQA      -0.430900
     35 O32         19.3140    -7.4310    13.9880 os         1 OQA      -0.429900
     36 O33         18.9560    -5.7180    12.5710 o          1 OQA      -0.601000
     37 O36         24.4640     3.2270    19.4100 os         1 OQA      -0.412600
     38 O39         22.8260     3.6770    20.9560 os         1 OQA      -0.392600
     39 H151        22.3350    -6.9880    13.9940 ha         1 OQA       0.126000
     40 H171        24.1790    -4.8680    17.2230 ha         1 OQA       0.126000
     41 H221        23.8720     0.1040    18.6740 h1         1 OQA       0.085700
     42 H241        18.3550     3.2260    18.3580 ha         1 OQA       0.134000
     43 H261        17.9500     1.0530    22.0230 ha         1 OQA       0.131000
     44 H281        18.1710    -1.0480    18.3020 ha         1 OQA       0.134000
     45 H021        19.7090    -0.5670    16.5210 h1         1 OQA       0.102700
     46 H031        19.5820     1.4250    14.2210 hc         1 OQA       0.050200
     47 H032        18.7470    -0.1140    14.2840 hc         1 OQA       0.050200
     48 H042        18.3220     2.1320    16.2820 hc         1 OQA       0.052200
     49 H041        17.5270     0.5730    16.2210 hc         1 OQA       0.052200
     50 H051        21.7670     0.3050    14.2140 h1         1 OQA       0.043700
     51 H061        21.3110    -1.6470    15.5190 h1         1 OQA       0.101700
     52 H091        17.8920    -3.8730    13.7850 h1         1 OQA       0.082700
     53 H112        23.1820    -1.6290    13.8800 hc         1 OQA       0.057200
     54 H111        22.1660    -2.4640    12.7140 hc         1 OQA       0.057200
     55 H141        21.8150    -4.8460    12.8880 ha         1 OQA       0.132000
     56 H161        23.5070    -7.0090    16.1720 ha         1 OQA       0.126000
     57 H181        23.6600    -2.7320    16.1130 ha         1 OQA       0.132000
     58 H251        18.1430     3.2040    20.8120 ha         1 OQA       0.132500
     59 H271        17.9690    -1.0730    20.7510 ha         1 OQA       0.132500
     60 H311        17.3080    -4.1430    16.7540 hc         1 OQA       0.069700
     61 H342        19.9690    -9.2190    13.3380 h1         1 OQA       0.048033
     62 H341        18.8930    -8.4040    12.1880 h1         1 OQA       0.048033
     63 H343        20.5730    -7.8590    12.3750 h1         1 OQA       0.048033
     64 H352        25.6840     1.5840    19.0320 h1         1 OQA       0.060700
     65 H371        24.5720     2.7840    21.4160 h2         1 OQA       0.079700
     66 H381        23.6380     0.6440    20.9240 hc         1 OQA       0.077700
     67 H402        20.7880     3.5750    21.1120 h1         1 OQA       0.053700
     68 H401        21.3910     3.4560    19.4550 h1         1 OQA       0.053700
     69 H411        21.5420     1.3520    21.6590 hc         1 OQA       0.066700
     70 H412        21.0250     1.0990    20.0080 hc         1 OQA       0.066700
     71 H422        14.9800    -4.6220    16.0260 hc         1 OQA       0.038367
     72 H423        15.4650    -4.5170    14.3360 hc         1 OQA       0.038367
     73 H421        16.0720    -5.8200    15.3590 hc         1 OQA       0.038367
     74 H432        17.5090    -1.7880    15.9010 hc         1 OQA       0.038200
     75 H431        16.2600    -2.1270    14.7260 hc         1 OQA       0.038200
     76 H443        15.4250    -0.9350    16.7800 hc         1 OQA       0.035700
     77 H441        14.6130    -2.4810    16.5850 hc         1 OQA       0.035700
     78 H442        15.9060    -2.3070    17.7700 hc         1 OQA       0.035700
     79 H011        20.9130     2.1310    16.4200 hn         1 OQA       0.322500
     80 H071        19.5430    -2.5690    13.3440 hn         1 OQA       0.327500
     81 H291        18.6980    -5.9720    15.7030 hn         1 OQA       0.340500
     82 H101        20.5580     0.5570    12.2190 ho         1 OQA       0.405000
     83 C08         19.4020    -3.2880    15.2310 c          1 OQA       0.641100
     84 C03         19.6560     0.4010    14.6050 c3         1 OQA      -0.122400
     85 C19         21.7000     0.6160    17.5110 c          1 OQA       0.751100
     86 C30         18.9580    -6.1770    13.6950 c          1 OQA       0.758100
     87 O12         19.8220    -3.3500    16.3780 o          1 OQA      -0.594100
     88 H351        24.9550     2.3610    17.6170 h1         1 OQA       0.060700
     89 C34         19.7060    -8.2600    12.9000 c3         1 OQA       0.146700
@<TRIPOS>BOND
     1     1    13 1   
     2     1    14 ar  
     3     1    16 ar  
     4     2    14 ar  
     5     2    15 ar  
     6     2    39 1   
     7     3    15 ar  
     8     3    16 ar  
     9     3    40 1   
    10     4    21 1   
    11     4    23 1   
    12     4    34 1   
    13     4    41 1   
    14     5    17 ar  
    15     5    18 ar  
    16     5    42 1   
    17     6    18 ar  
    18     6    19 ar  
    19     6    43 1   
    20     7    17 ar  
    21     7    19 ar  
    22     7    44 1   
    23     8     9 1   
    24     8    29 1   
    25     8    45 1   
    26     8    84 1   
    27     9    17 1   
    28     9    48 1   
    29     9    49 1   
    30    10    11 1   
    31    10    32 1   
    32    10    50 1   
    33    10    84 1   
    34    11    13 1   
    35    11    30 1   
    36    11    51 1   
    37    12    20 1   
    38    12    31 1   
    39    12    52 1   
    40    12    83 1   
    41    13    53 1   
    42    13    54 1   
    43    14    55 1   
    44    15    56 1   
    45    16    57 1   
    46    18    58 1   
    47    19    59 1   
    48    20    26 1   
    49    20    27 1   
    50    20    60 1   
    51    21    37 1   
    52    21    64 1   
    53    21    88 1   
    54    22    23 1   
    55    22    37 1   
    56    22    38 1   
    57    22    65 1   
    58    23    25 1   
    59    23    66 1   
    60    24    25 1   
    61    24    38 1   
    62    24    67 1   
    63    24    68 1   
    64    25    69 1   
    65    25    70 1   
    66    26    71 1   
    67    26    72 1   
    68    26    73 1   
    69    27    28 1   
    70    27    74 1   
    71    27    75 1   
    72    28    76 1   
    73    28    77 1   
    74    28    78 1   
    75    29    79 1   
    76    29    85 1   
    77    30    80 1   
    78    30    83 1   
    79    31    81 1   
    80    31    86 1   
    81    32    82 1   
    82    33    85 2   
    83    34    85 1   
    84    35    86 1   
    85    35    89 1   
    86    36    86 2   
    87    46    84 1   
    88    47    84 1   
    89    61    89 1   
    90    62    89 1   
    91    63    89 1   
    92    83    87 2   
@<TRIPOS>SUBSTRUCTURE
     1 OQA         1 TEMP              0 ****  ****    0 ROOT
