@<TRIPOS>MOLECULE
OQB
   58    61     1     0     0
SMALL
abcg2


@<TRIPOS>ATOM
      1 O37          5.8670    -4.1040     1.7760 o          1 OQB      -0.723000
      2 C9           6.6770    -3.1600     1.7950 c          1 OQB       0.719000
      3 O33          6.9230    -2.3960     2.7460 o          1 OQB      -0.723000
      4 C10          7.4990    -2.9450     0.5030 c3         1 OQB      -0.228400
      5 C27          7.8240    -1.4790     0.2370 c3         1 OQB       0.005700
      6 C28          8.8630    -1.3830    -0.8510 c          1 OQB       0.559900
      7 O35          8.7060    -0.8440    -1.9150 o          1 OQB      -0.549100
      8 N3           6.6280    -0.7500    -0.0830 ns         1 OQB      -0.447900
      9 C16          6.5720     0.5910    -0.0560 c          1 OQB       0.619700
     10 O34          7.5170     1.2950     0.2690 o          1 OQB      -0.617100
     11 C21          5.2620     1.1920    -0.4410 ca         1 OQB      -0.182600
     12 C12          4.0460     0.5670    -0.2010 ca         1 OQB       0.376900
     13 N1           2.8760     1.1060    -0.5210 nb         1 OQB      -0.710000
     14 C23          5.2310     2.4570    -1.0240 ca         1 OQB      -0.024000
     15 C24          4.0180     3.0100    -1.3720 ca         1 OQB      -0.176000
     16 C14          2.8530     2.2930    -1.1050 ca         1 OQB       0.336300
     17 C19          1.5130     2.8630    -1.4850 c3         1 OQB       0.054700
     18 N6           0.4530     2.0100    -1.0240 ns         1 OQB      -0.491900
     19 C15         -0.8390     2.3160    -1.2060 c          1 OQB       0.617700
     20 O36         -1.1810     3.3510    -1.7700 o          1 OQB      -0.633100
     21 C20         -1.8490     1.3500    -0.6870 ca         1 OQB      -0.172600
     22 C22         -3.1930     1.7010    -0.7650 ca         1 OQB      -0.039500
     23 C26         -1.5370     0.1090    -0.1290 ca         1 OQB      -0.039500
     24 C25         -2.5270    -0.7320     0.3320 ca         1 OQB      -0.168000
     25 C11         -3.8780    -0.3670     0.2570 ca         1 OQB       0.322000
     26 C8          -4.2020     0.8720    -0.3040 ca         1 OQB      -0.168000
     27 N2          -4.7940    -1.2770     0.7550 nu         1 OQB      -0.930900
     28 C13         -6.1560    -1.2430     0.7900 ca         1 OQB       0.579900
     29 C29         -6.8110    -2.3810     1.3810 ca         1 OQB       0.271900
     30 N4          -8.0940    -2.4650     1.4670 nb         1 OQB      -0.603000
     31 N5          -6.8400    -0.2410     0.3180 nb         1 OQB      -0.716000
     32 C32         -8.1920    -0.3120     0.4020 ca         1 OQB       0.282000
     33 C31         -8.8340    -1.4300     0.9770 ca         1 OQB       0.174000
     34 C17         -8.9790     0.7460    -0.0940 ca         1 OQB      -0.094000
     35 C30        -10.3470     0.6800    -0.0140 ca         1 OQB      -0.090000
     36 C18        -10.9840    -0.4360     0.5600 ca         1 OQB      -0.127000
     37 C7         -10.2370    -1.4780     1.0490 ca         1 OQB      -0.056000
     38 H101         8.4380    -3.4990     0.6080 hc         1 OQB       0.031700
     39 H102         6.9870    -3.3790    -0.3600 hc         1 OQB       0.031700
     40 H27          8.2750    -1.0710     1.1470 h1         1 OQB       0.117700
     41 H28          9.8180    -1.8750    -0.5890 h4         1 OQB      -0.026800
     42 HN3          5.8800    -1.2620    -0.5250 hn         1 OQB       0.319500
     43 H12          4.0010    -0.3980     0.2930 h4         1 OQB       0.046100
     44 H23          6.1520     2.9940    -1.2120 ha         1 OQB       0.139000
     45 H24          3.9660     3.9840    -1.8410 ha         1 OQB       0.121000
     46 H191         1.4180     3.8700    -1.0680 h1         1 OQB       0.058200
     47 H192         1.4780     2.9810    -2.5740 h1         1 OQB       0.058200
     48 HN6          0.7510     1.1650    -0.5580 hn         1 OQB       0.351500
     49 H22         -3.4700     2.6540    -1.1950 ha         1 OQB       0.130000
     50 H26         -0.5160    -0.2400    -0.0440 ha         1 OQB       0.130000
     51 H25         -2.2510    -1.6900     0.7570 ha         1 OQB       0.131500
     52 H8          -5.2280     1.1870    -0.3820 ha         1 OQB       0.131500
     53 HN2         -4.3830    -2.1110     1.1480 hn         1 OQB       0.500000
     54 H29         -6.2180    -3.2030     1.7700 h4         1 OQB       0.027100
     55 H17         -8.4830     1.6020    -0.5340 ha         1 OQB       0.132000
     56 H30        -10.9460     1.4960    -0.3960 ha         1 OQB       0.115000
     57 H18        -12.0630    -0.4690     0.6140 ha         1 OQB       0.115000
     58 H7         -10.7050    -2.3460     1.4950 ha         1 OQB       0.128000
@<TRIPOS>BOND
     1     1     2 1   
     2     2     3 1   
     3     2     4 1   
     4     4     5 1   
     5     4    38 1   
     6     4    39 1   
     7     5     6 1   
     8     5     8 1   
     9     5    40 1   
    10     6     7 2   
    11     6    41 1   
    12     8     9 1   
    13     8    42 1   
    14     9    10 2   
    15     9    11 1   
    16    11    12 ar  
    17    11    14 ar  
    18    12    13 ar  
    19    12    43 1   
    20    13    16 ar  
    21    14    15 ar  
    22    14    44 1   
    23    15    16 ar  
    24    15    45 1   
    25    16    17 1   
    26    17    18 1   
    27    17    46 1   
    28    17    47 1   
    29    18    19 1   
    30    18    48 1   
    31    19    20 2   
    32    19    21 1   
    33    21    22 ar  
    34    21    23 ar  
    35    22    26 ar  
    36    22    49 1   
    37    23    24 ar  
    38    23    50 1   
    39    24    25 ar  
    40    24    51 1   
    41    25    26 ar  
    42    25    27 1   
    43    26    52 1   
    44    27    28 1   
    45    27    53 1   
    46    28    29 ar  
    47    28    31 ar  
    48    29    30 ar  
    49    29    54 1   
    50    30    33 ar  
    51    31    32 ar  
    52    32    33 ar  
    53    32    34 ar  
    54    33    37 ar  
    55    34    35 ar  
    56    34    55 1   
    57    35    36 ar  
    58    35    56 1   
    59    36    37 ar  
    60    36    57 1   
    61    37    58 1   
@<TRIPOS>SUBSTRUCTURE
     1 OQB         1 TEMP              0 ****  ****    0 ROOT
