@<TRIPOS>MOLECULE
OQB
   58    61     1     0     0
SMALL
No Charge or Current Charge


@<TRIPOS>ATOM
      1 O37          7.7170    -0.5180     2.2950 o          1 OQB      -0.723000
      2 C9           8.5220    -1.1620     1.6410 c          1 OQB       0.719000
      3 O33          9.7030    -0.8710     1.5350 o          1 OQB      -0.723000
      4 C10          8.0250    -2.4160     0.9050 c3         1 OQB      -0.228400
      5 C27          7.6010    -2.0910    -0.5550 c3         1 OQB       0.005700
      6 C28          7.2890    -3.3800    -1.3610 c          1 OQB       0.559900
      7 O35          6.1790    -3.6650    -1.8050 o          1 OQB      -0.549100
      8 N3           6.4530    -1.1550    -0.6020 ns         1 OQB      -0.447900
      9 C16          6.5390     0.2000    -0.8570 c          1 OQB       0.619700
     10 O34          7.6090     0.7280    -1.1270 o          1 OQB      -0.617100
     11 C21          5.2620     0.9930    -0.8040 ca         1 OQB      -0.182600
     12 C12          4.0300     0.3930    -0.4770 ca         1 OQB       0.376900
     13 N1           2.8610     1.0750    -0.4200 nb         1 OQB      -0.710000
     14 C23          5.2700     2.3760    -1.0830 ca         1 OQB      -0.024000
     15 C24          4.0590     3.0840    -1.0240 ca         1 OQB      -0.176000
     16 C14          2.8770     2.4050    -0.6910 ca         1 OQB       0.336300
     17 C19          1.5450     3.1620    -0.6220 c3         1 OQB       0.054700
     18 N6           0.3910     2.3150    -0.2770 ns         1 OQB      -0.491900
     19 C15         -0.9070     2.7530    -0.1610 c          1 OQB       0.617700
     20 O36         -1.1920     3.9290    -0.3470 o          1 OQB      -0.633100
     21 C20         -1.9500     1.7170     0.2040 ca         1 OQB      -0.172600
     22 C22         -3.3000     2.1100     0.3370 ca         1 OQB      -0.039500
     23 C26         -1.6210     0.3580     0.4270 ca         1 OQB      -0.039500
     24 C25         -2.6210    -0.5710     0.7650 ca         1 OQB      -0.168000
     25 C11         -3.9620    -0.1770     0.8770 ca         1 OQB       0.322000
     26 C8          -4.2920     1.1740     0.6740 ca         1 OQB      -0.168000
     27 N2          -4.9140    -1.1350     1.2360 nu         1 OQB      -0.930900
     28 C13         -6.2870    -1.2780     1.0230 ca         1 OQB       0.579900
     29 C29         -7.0930    -2.2300     1.7240 ca         1 OQB       0.271900
     30 N4          -8.4250    -2.3810     1.4830 nb         1 OQB      -0.603000
     31 N5          -6.8010    -0.4860     0.0620 nb         1 OQB      -0.716000
     32 C32         -8.1310    -0.6230    -0.1900 ca         1 OQB       0.282000
     33 C31         -8.9470    -1.5710     0.5220 ca         1 OQB       0.174000
     34 C17         -8.7280     0.1850    -1.1760 ca         1 OQB      -0.094000
     35 C30        -10.0970     0.0790    -1.4710 ca         1 OQB      -0.090000
     36 C18        -10.8920    -0.8440    -0.7760 ca         1 OQB      -0.127000
     37 C7         -10.3180    -1.6620     0.2120 ca         1 OQB      -0.056000
     38 H101         8.8470    -3.1370     0.8130 hc         1 OQB       0.031700
     39 H102         7.1350    -2.8250     1.4000 hc         1 OQB       0.031700
     40 H27          8.4600    -1.6350    -1.0660 h1         1 OQB       0.117700
     41 H28          8.1570    -4.0560    -1.5260 h4         1 OQB      -0.026800
     42 HN3          5.5310    -1.5350    -0.4260 hn         1 OQB       0.319500
     43 H12          3.9570    -0.6690    -0.2480 h4         1 OQB       0.046100
     44 H23          6.1920     2.8940    -1.3400 ha         1 OQB       0.139000
     45 H24          4.0370     4.1500    -1.2340 ha         1 OQB       0.121000
     46 H191         1.6300     3.9600     0.1270 h1         1 OQB       0.058200
     47 H192         1.3550     3.6320    -1.5960 h1         1 OQB       0.058200
     48 HN6          0.5740     1.3330    -0.1140 hn         1 OQB       0.351500
     49 H22         -3.5870     3.1490     0.1830 ha         1 OQB       0.130000
     50 H26         -0.5970     0.0010     0.3450 ha         1 OQB       0.130000
     51 H25         -2.3460    -1.6090     0.9320 ha         1 OQB       0.131500
     52 H8          -5.3160     1.5110     0.7900 ha         1 OQB       0.131500
     53 HN2         -4.5130    -1.9430     1.7100 hn         1 OQB       0.500000
     54 H29         -6.6610    -2.8760     2.4870 h4         1 OQB       0.027100
     55 H17         -8.1180     0.9030    -1.7180 ha         1 OQB       0.132000
     56 H30        -10.5400     0.7130    -2.2360 ha         1 OQB       0.115000
     57 H18        -11.9530    -0.9280    -1.0020 ha         1 OQB       0.115000
     58 H7         -10.9420    -2.3750     0.7440 ha         1 OQB       0.128000
@<TRIPOS>BOND
     1     1     2 1   
     2     2     3 1   
     3     2     4 1   
     4     4     5 1   
     5     4    38 1   
     6     4    39 1   
     7     5     6 1   
     8     5     8 1   
     9     5    40 1   
    10     6     7 2   
    11     6    41 1   
    12     8     9 1   
    13     8    42 1   
    14     9    10 2   
    15     9    11 1   
    16    11    12 ar  
    17    11    14 ar  
    18    12    13 ar  
    19    12    43 1   
    20    13    16 ar  
    21    14    15 ar  
    22    14    44 1   
    23    15    16 ar  
    24    15    45 1   
    25    16    17 1   
    26    17    18 1   
    27    17    46 1   
    28    17    47 1   
    29    18    19 1   
    30    18    48 1   
    31    19    20 2   
    32    19    21 1   
    33    21    22 ar  
    34    21    23 ar  
    35    22    26 ar  
    36    22    49 1   
    37    23    24 ar  
    38    23    50 1   
    39    24    25 ar  
    40    24    51 1   
    41    25    26 ar  
    42    25    27 1   
    43    26    52 1   
    44    27    28 1   
    45    27    53 1   
    46    28    29 ar  
    47    28    31 ar  
    48    29    30 ar  
    49    29    54 1   
    50    30    33 ar  
    51    31    32 ar  
    52    32    33 ar  
    53    32    34 ar  
    54    33    37 ar  
    55    34    35 ar  
    56    34    55 1   
    57    35    36 ar  
    58    35    56 1   
    59    36    37 ar  
    60    36    57 1   
    61    37    58 1   
@<TRIPOS>SUBSTRUCTURE
     1 OQB         1 TEMP              0 ****  ****    0 ROOT
