@<TRIPOS>MOLECULE
OQC
   24    25     1     0     0
SMALL
No Charge or Current Charge


@<TRIPOS>ATOM
      1 C7           1.7800     0.4660    -0.0690 cc         1 OQC      -0.122000
      2 C5          -0.4240    -0.8540    -0.0580 ca         1 OQC       0.124000
      3 C6          -1.8290    -0.8430    -0.1170 ca         1 OQC      -0.084000
      4 C1          -2.5400     0.3610    -0.2610 ca         1 OQC      -0.078300
      5 C           -4.0610     0.3540    -0.3280 c3         1 OQC       0.198100
      6 N           -4.6590     0.2080     1.0120 n8         1 OQC      -1.000200
      7 C4           0.3090     0.3650    -0.1360 ca         1 OQC       0.012000
      8 C3          -0.4210     1.5640    -0.3060 ca         1 OQC      -0.098000
      9 C2          -1.8240     1.5650    -0.3610 ca         1 OQC      -0.112000
     10 C10          2.6250     1.5300    -0.4550 cc         1 OQC      -0.177000
     11 C9           3.8860     1.2080    -0.0410 cd         1 OQC       0.115900
     12 C8           2.5870    -0.4050     0.6270 cd         1 OQC       0.156900
     13 O            3.9020     0.0060     0.6250 os         1 OQC      -0.235000
     14 H1          -2.3730    -1.7830    -0.0620 ha         1 OQC       0.148000
     15 H2          -4.4200     1.2910    -0.7770 h1         1 OQC       0.037200
     16 H3          -4.4000    -0.4780    -0.9620 h1         1 OQC       0.037200
     17 H4          -4.3890     1.0190     1.5800 hn         1 OQC       0.399500
     18 H5          -5.6790     0.2960     0.9320 hn         1 OQC       0.399500
     19 H7           0.0990     2.5150    -0.3730 ha         1 OQC       0.118000
     20 H8          -2.3550     2.5070    -0.4800 ha         1 OQC       0.113000
     21 H9           2.3280     2.4310    -0.9810 ha         1 OQC       0.142000
     22 H10          4.8230     1.7430    -0.1380 h4         1 OQC       0.053100
     23 H11          2.3640    -1.2940     1.2000 h4         1 OQC       0.061100
     24 Cl           0.3400    -2.4460     0.0050 cl         1 OQC      -0.210000
@<TRIPOS>BOND
     1     1     7 1   
     2     1    10 1   
     3     1    12 2   
     4     2     3 ar  
     5     2     7 ar  
     6     2    24 1   
     7     3     4 ar  
     8     3    14 1   
     9     4     5 1   
    10     4     9 ar  
    11     5     6 1   
    12     5    15 1   
    13     5    16 1   
    14     6    17 1   
    15     6    18 1   
    16     7     8 ar  
    17     8     9 ar  
    18     8    19 1   
    19     9    20 1   
    20    10    11 2   
    21    10    21 1   
    22    11    13 1   
    23    11    22 1   
    24    12    13 1   
    25    12    23 1   
@<TRIPOS>SUBSTRUCTURE
     1 OQC         1 TEMP              0 ****  ****    0 ROOT
