@<TRIPOS>MOLECULE
OQC
   24    25     1     0     0
SMALL
abcg2


@<TRIPOS>ATOM
      1 C7           1.7660     0.4640     0.0640 cc         1 OQC      -0.122000
      2 C5          -0.4970    -0.6770     0.2220 ca         1 OQC       0.124000
      3 C6          -1.8820    -0.6240     0.1520 ca         1 OQC      -0.084000
      4 C1          -2.5290     0.5710    -0.1270 ca         1 OQC      -0.078300
      5 C           -4.0320     0.6520    -0.2290 c3         1 OQC       0.198100
      6 N           -4.6960    -0.4730     0.3990 n8         1 OQC      -1.000200
      7 C4           0.3020     0.4480     0.0170 ca         1 OQC       0.012000
      8 C3          -0.3730     1.6400    -0.2690 ca         1 OQC      -0.098000
      9 C2          -1.7510     1.7060    -0.3360 ca         1 OQC      -0.112000
     10 C10          2.6090     1.2940    -0.7520 cc         1 OQC      -0.177000
     11 C9           3.8780     1.0440    -0.3670 cd         1 OQC       0.115900
     12 C8           2.6170    -0.2130     0.8810 cd         1 OQC       0.156900
     13 O            3.8910     0.1330     0.6270 os         1 OQC      -0.235000
     14 H1          -2.4650    -1.5200     0.3180 ha         1 OQC       0.148000
     15 H2          -4.3480     1.6300     0.1590 h1         1 OQC       0.037200
     16 H3          -4.3010     0.6540    -1.2890 h1         1 OQC       0.037200
     17 H4          -4.6270    -0.3920     1.4060 hn         1 OQC       0.399500
     18 H5          -5.6830    -0.4420     0.1820 hn         1 OQC       0.399500
     19 H7           0.2060     2.5410    -0.4240 ha         1 OQC       0.118000
     20 H8          -2.2270     2.6560    -0.5490 ha         1 OQC       0.113000
     21 H9           2.2980     1.9680    -1.5340 ha         1 OQC       0.142000
     22 H10          4.8330     1.4190    -0.6980 h4         1 OQC       0.053100
     23 H11          2.4640    -0.9250     1.6740 h4         1 OQC       0.061100
     24 CL           0.2160    -2.2270     0.5490 cl         1 OQC      -0.210000
@<TRIPOS>BOND
     1     1     7 1   
     2     1    10 1   
     3     1    12 2   
     4     2     3 ar  
     5     2     7 ar  
     6     2    24 1   
     7     3     4 ar  
     8     3    14 1   
     9     4     5 1   
    10     4     9 ar  
    11     5     6 1   
    12     5    15 1   
    13     5    16 1   
    14     6    17 1   
    15     6    18 1   
    16     7     8 ar  
    17     8     9 ar  
    18     8    19 1   
    19     9    20 1   
    20    10    11 2   
    21    10    21 1   
    22    11    13 1   
    23    11    22 1   
    24    12    13 1   
    25    12    23 1   
@<TRIPOS>SUBSTRUCTURE
     1 OQC         1 TEMP              0 ****  ****    0 ROOT
