@<TRIPOS>MOLECULE
OQD
   89    92     1     0     0
SMALL
No Charge or Current Charge


@<TRIPOS>ATOM
      1 C13         22.5980    -3.5420    14.2460 ca         1 OQD      -0.085300
      2 C15         22.4600    -5.9210    13.7100 ca         1 OQD      -0.111000
      3 C17         23.5080    -5.2040    15.7840 ca         1 OQD      -0.111000
      4 C22         23.8380     1.4310    18.7920 c5         1 OQD       0.162300
      5 C24         18.6550    -0.3020    19.5500 ca         1 OQD      -0.101500
      6 C26         18.6790     0.8910    21.6720 ca         1 OQD      -0.111000
      7 C28         18.3430     2.1100    19.5910 ca         1 OQD      -0.101500
      8 C02         19.5910     0.4400    16.6150 c3         1 OQD       0.123700
      9 C04         18.3090     0.9170    17.3390 c3         1 OQD      -0.046100
     10 C05         20.6600    -0.0880    14.2870 c3         1 OQD       0.163300
     11 C06         21.0120    -1.5700    14.6340 c3         1 OQD       0.109700
     12 C09         18.4030    -4.4430    14.6810 c3         1 OQD       0.052700
     13 C11         22.2800    -2.0880    13.9070 c3         1 OQD      -0.038100
     14 C14         22.2060    -4.5790    13.3750 ca         1 OQD      -0.098000
     15 C16         23.1110    -6.2340    14.9140 ca         1 OQD      -0.109000
     16 C18         23.2510    -3.8620    15.4520 ca         1 OQD      -0.098000
     17 C23         18.4400     0.9090    18.8610 ca         1 OQD      -0.086300
     18 C25         18.7770    -0.3100    20.9500 ca         1 OQD      -0.110500
     19 C27         18.4600     2.1010    20.9920 ca         1 OQD      -0.110500
     20 C31         16.9420    -4.0840    15.1030 c3         1 OQD      -0.065700
     21 C35         24.8690     2.5700    18.5710 c5         1 OQD       0.152600
     22 C37         24.1840     2.9060    20.7520 c5         1 OQD       0.372300
     23 C38         23.6190     1.4990    20.3590 c5         1 OQD      -0.147700
     24 C40         21.8790     3.1170    20.7980 c5         1 OQD       0.154600
     25 C41         22.1130     1.5890    20.8020 c5         1 OQD      -0.099400
     26 C42         15.8690    -5.0280    14.4830 c3         1 OQD      -0.069400
     27 C43         16.5930    -2.5920    14.8640 c3         1 OQD      -0.091100
     28 C44         15.7250    -4.9530    12.9460 c3         1 OQD      -0.094100
     29 N01         20.7450     1.2320    17.0450 ns         1 OQD      -0.502900
     30 N07         19.8770    -2.4720    14.3920 ns         1 OQD      -0.488900
     31 N29         18.7570    -5.8090    15.1210 ns         1 OQD      -0.490900
     32 O10         20.3650     0.0300    12.8850 oh         1 OQD      -0.664000
     33 O20         22.0630    -0.4480    17.8860 o          1 OQD      -0.536000
     34 O21         22.6450     1.7860    18.0320 os         1 OQD      -0.456100
     35 O32         19.3400    -7.9450    15.0460 os         1 OQD      -0.453100
     36 O33         18.8710    -6.8520    13.0770 o          1 OQD      -0.552000
     37 O36         24.4760     3.5800    19.5160 os         1 OQD      -0.458000
     38 O39         23.0970     3.6040    21.3880 os         1 OQD      -0.442000
     39 H151        22.1490    -6.7170    13.0370 ha         1 OQD       0.108500
     40 H171        24.0090    -5.4450    16.7190 ha         1 OQD       0.108500
     41 H221        24.2490     0.4710    18.4490 h1         1 OQD       0.085700
     42 H241        18.7290    -1.2380    19.0010 ha         1 OQD       0.115500
     43 H261        18.7730     0.8850    22.7560 ha         1 OQD       0.113000
     44 H281        18.1760     3.0530    19.0750 ha         1 OQD       0.115500
     45 H021        19.7480    -0.6040    16.9190 h1         1 OQD       0.104700
     46 H031        19.2730     1.5120    14.7640 hc         1 OQD       0.051200
     47 H032        18.5450    -0.0830    14.7900 hc         1 OQD       0.051200
     48 H041        18.0550     1.9230    16.9840 hc         1 OQD       0.052200
     49 H042        17.4740     0.2710    17.0430 hc         1 OQD       0.052200
     50 H051        21.5370     0.5280    14.5280 h1         1 OQD       0.043700
     51 H061        21.2500    -1.6010    15.7040 h1         1 OQD       0.103700
     52 H091        18.4850    -4.3860    13.5880 h1         1 OQD       0.085700
     53 H111        23.1300    -1.4480    14.1730 hc         1 OQD       0.056700
     54 H112        22.1490    -1.9800    12.8230 hc         1 OQD       0.056700
     55 H141        21.6920    -4.3480    12.4450 ha         1 OQD       0.116000
     56 H161        23.3060    -7.2720    15.1740 ha         1 OQD       0.108000
     57 H181        23.5490    -3.0720    16.1380 ha         1 OQD       0.116000
     58 H251        18.9470    -1.2470    21.4750 ha         1 OQD       0.114000
     59 H271        18.3820     3.0310    21.5500 ha         1 OQD       0.114000
     60 H311        16.8860    -4.2330    16.1900 hc         1 OQD       0.065700
     61 H342        19.9370    -9.9490    15.0740 h1         1 OQD       0.047367
     62 H343        18.7880    -9.5290    13.7850 h1         1 OQD       0.047367
     63 H341        20.4920    -9.0230    13.6630 h1         1 OQD       0.047367
     64 H352        25.8910     2.2370    18.8010 h1         1 OQD       0.060700
     65 H371        25.0730     2.8500    21.3960 h2         1 OQD       0.079700
     66 H381        24.1540     0.6930    20.8730 hc         1 OQD       0.077700
     67 H401        21.0150     3.4220    21.4030 h1         1 OQD       0.052700
     68 H402        21.7690     3.5250    19.7840 h1         1 OQD       0.052700
     69 H411        21.9880     1.2000    21.8190 hc         1 OQD       0.066700
     70 H412        21.4020     1.0380    20.1820 hc         1 OQD       0.066700
     71 H422        14.8950    -4.7970    14.9320 hc         1 OQD       0.042200
     72 H421        16.0860    -6.0660    14.7660 hc         1 OQD       0.042200
     73 H431        15.5370    -2.3990    15.0890 hc         1 OQD       0.037033
     74 H433        17.1880    -1.9430    15.5160 hc         1 OQD       0.037033
     75 H432        16.7810    -2.3020    13.8230 hc         1 OQD       0.037033
     76 H442        14.9560    -5.6560    12.6060 hc         1 OQD       0.036033
     77 H443        15.4270    -3.9480    12.6250 hc         1 OQD       0.036033
     78 H441        16.6630    -5.2140    12.4440 hc         1 OQD       0.036033
     79 H011        20.7060     2.2390    16.9610 hn         1 OQD       0.322500
     80 H071        19.4440    -2.4420    13.4760 hn         1 OQD       0.326500
     81 H291        18.9310    -5.9760    16.1040 hn         1 OQD       0.340500
     82 H101        20.2320     0.9840    12.6970 ho         1 OQD       0.444000
     83 C08         19.4540    -3.4560    15.2620 c          1 OQD       0.580100
     84 C03         19.4450     0.4740    15.0740 c3         1 OQD      -0.125400
     85 C19         21.8480     0.7350    17.6740 c          1 OQD       0.640100
     86 C30         18.9670    -6.8740    14.2930 c          1 OQD       0.643100
     87 O12         19.8930    -3.5500    16.4020 o          1 OQD      -0.603100
     88 H351        24.8490     2.9760    17.5510 h1         1 OQD       0.060700
     89 C34         19.6540    -9.1680    14.3560 c3         1 OQD       0.170900
@<TRIPOS>BOND
     1     1    13 1   
     2     1    14 ar  
     3     1    16 ar  
     4     2    14 ar  
     5     2    15 ar  
     6     2    39 1   
     7     3    15 ar  
     8     3    16 ar  
     9     3    40 1   
    10     4    21 1   
    11     4    23 1   
    12     4    34 1   
    13     4    41 1   
    14     5    17 ar  
    15     5    18 ar  
    16     5    42 1   
    17     6    18 ar  
    18     6    19 ar  
    19     6    43 1   
    20     7    17 ar  
    21     7    19 ar  
    22     7    44 1   
    23     8     9 1   
    24     8    29 1   
    25     8    45 1   
    26     8    84 1   
    27     9    17 1   
    28     9    48 1   
    29     9    49 1   
    30    10    11 1   
    31    10    32 1   
    32    10    50 1   
    33    10    84 1   
    34    11    13 1   
    35    11    30 1   
    36    11    51 1   
    37    12    20 1   
    38    12    31 1   
    39    12    52 1   
    40    12    83 1   
    41    13    53 1   
    42    13    54 1   
    43    14    55 1   
    44    15    56 1   
    45    16    57 1   
    46    18    58 1   
    47    19    59 1   
    48    20    26 1   
    49    20    27 1   
    50    20    60 1   
    51    21    37 1   
    52    21    64 1   
    53    21    88 1   
    54    22    23 1   
    55    22    37 1   
    56    22    38 1   
    57    22    65 1   
    58    23    25 1   
    59    23    66 1   
    60    24    25 1   
    61    24    38 1   
    62    24    67 1   
    63    24    68 1   
    64    25    69 1   
    65    25    70 1   
    66    26    28 1   
    67    26    71 1   
    68    26    72 1   
    69    27    73 1   
    70    27    74 1   
    71    27    75 1   
    72    28    76 1   
    73    28    77 1   
    74    28    78 1   
    75    29    79 1   
    76    29    85 1   
    77    30    80 1   
    78    30    83 1   
    79    31    81 1   
    80    31    86 1   
    81    32    82 1   
    82    33    85 2   
    83    34    85 1   
    84    35    86 1   
    85    35    89 1   
    86    36    86 2   
    87    46    84 1   
    88    47    84 1   
    89    61    89 1   
    90    62    89 1   
    91    63    89 1   
    92    83    87 2   
@<TRIPOS>SUBSTRUCTURE
     1 OQD         1 TEMP              0 ****  ****    0 ROOT
