@<TRIPOS>MOLECULE
OQD
   89    92     1     0     0
SMALL
bcc


@<TRIPOS>ATOM
      1 C13         22.7160    -3.6210    14.5440 ca         1 OQD      -0.085300
      2 C15         22.6680    -6.0360    14.4160 ca         1 OQD      -0.129000
      3 C17         23.6400    -4.9660    16.3310 ca         1 OQD      -0.129000
      4 C22         23.8300     1.3720    18.7260 c5         1 OQD       0.139100
      5 C24         18.3940    -0.5350    19.2480 ca         1 OQD      -0.119500
      6 C26         18.4720     0.4780    21.4290 ca         1 OQD      -0.129000
      7 C28         18.4570     1.8500    19.4510 ca         1 OQD      -0.119500
      8 C02         19.6740     0.3170    16.4970 c3         1 OQD       0.123700
      9 C04         18.3820     0.8320    17.1410 c3         1 OQD      -0.046100
     10 C05         20.7730    -0.2910    14.2490 c3         1 OQD       0.140100
     11 C06         21.0740    -1.7330    14.6580 c3         1 OQD       0.109700
     12 C09         18.2390    -4.2790    14.7590 c3         1 OQD       0.052700
     13 C11         22.3480    -2.2740    13.9910 c3         1 OQD      -0.038100
     14 C14         22.3790    -4.7910    13.8700 ca         1 OQD      -0.116000
     15 C16         23.2970    -6.1280    15.6490 ca         1 OQD      -0.127000
     16 C18         23.3500    -3.7260    15.7810 ca         1 OQD      -0.116000
     17 C23         18.4080     0.7210    18.6390 ca         1 OQD      -0.086300
     18 C25         18.4290    -0.6580    20.6290 ca         1 OQD      -0.128500
     19 C27         18.4840     1.7320    20.8350 ca         1 OQD      -0.128500
     20 C31         16.9330    -3.9850    15.5080 c3         1 OQD      -0.065700
     21 C35         24.8760     2.4160    18.3840 c5         1 OQD       0.129400
     22 C37         24.0720     3.1090    20.4060 c5         1 OQD       0.325900
     23 C38         23.6050     1.6450    20.2200 c5         1 OQD      -0.147700
     24 C40         21.7790     3.1350    20.5750 c5         1 OQD       0.131400
     25 C41         22.1710     1.6740    20.7420 c5         1 OQD      -0.099400
     26 C42         15.7870    -4.8910    15.0460 c3         1 OQD      -0.069400
     27 C43         16.5720    -2.5070    15.3860 c3         1 OQD      -0.091100
     28 C44         15.4080    -4.7710    13.5750 c3         1 OQD      -0.094100
     29 N01         20.7980     1.1200    16.9300 ns         1 OQD      -0.569900
     30 N07         19.9460    -2.5970    14.3880 ns         1 OQD      -0.555900
     31 N29         18.6250    -5.6630    14.8950 ns         1 OQD      -0.557900
     32 O10         20.5700    -0.2900    12.8500 oh         1 OQD      -0.601800
     33 O20         22.0180    -0.5050    17.9630 o          1 OQD      -0.585000
     34 O21         22.6760     1.6540    17.9400 os         1 OQD      -0.432900
     35 O32         19.3620    -7.6450    14.2650 os         1 OQD      -0.429900
     36 O33         19.1030    -6.0470    12.7010 o          1 OQD      -0.601000
     37 O36         24.5290     3.5500    19.1480 os         1 OQD      -0.411600
     38 O39         22.9810     3.8580    20.8240 os         1 OQD      -0.395600
     39 H151        22.4090    -6.9350    13.8710 ha         1 OQD       0.126500
     40 H171        24.1330    -5.0270    17.2930 ha         1 OQD       0.126500
     41 H221        24.1820     0.3590    18.5340 h1         1 OQD       0.085700
     42 H241        18.3560    -1.4280    18.6330 ha         1 OQD       0.133500
     43 H261        18.4950     0.3850    22.5080 ha         1 OQD       0.131000
     44 H281        18.4680     2.8340    18.9970 ha         1 OQD       0.133500
     45 H021        19.8430    -0.6970    16.8600 h1         1 OQD       0.104700
     46 H031        19.4120     1.3250    14.6190 hc         1 OQD       0.051200
     47 H032        18.6680    -0.2610    14.6930 hc         1 OQD       0.051200
     48 H041        18.2160     1.8710    16.8400 hc         1 OQD       0.052200
     49 H042        17.5450     0.2540    16.7410 hc         1 OQD       0.052200
     50 H051        21.6620     0.3000    14.5100 h1         1 OQD       0.043700
     51 H061        21.2400    -1.7480    15.7340 h1         1 OQD       0.103700
     52 H091        18.0870    -4.0850    13.6970 h1         1 OQD       0.085700
     53 H111        23.1560    -1.5610    14.1730 hc         1 OQD       0.056700
     54 H112        22.2100    -2.3340    12.9100 hc         1 OQD       0.056700
     55 H141        21.8850    -4.7300    12.9080 ha         1 OQD       0.134000
     56 H161        23.5220    -7.0970    16.0760 ha         1 OQD       0.126000
     57 H181        23.6120    -2.8240    16.3250 ha         1 OQD       0.134000
     58 H251        18.4170    -1.6410    21.0820 ha         1 OQD       0.132000
     59 H271        18.5170     2.6230    21.4500 ha         1 OQD       0.132000
     60 H311        17.1050    -4.1990    16.5690 hc         1 OQD       0.065700
     61 H342        19.9970    -9.4940    13.7920 h1         1 OQD       0.047367
     62 H343        19.0030    -8.7470    12.5280 h1         1 OQD       0.047367
     63 H341        20.6860    -8.2300    12.7580 h1         1 OQD       0.047367
     64 H352        25.8670     2.0330    18.6570 h1         1 OQD       0.060700
     65 H371        24.8680     3.2300    21.1490 h2         1 OQD       0.079700
     66 H381        24.2290     0.9580    20.7920 hc         1 OQD       0.077700
     67 H401        21.0300     3.4650    21.2960 h1         1 OQD       0.052700
     68 H402        21.3920     3.3390    19.5720 h1         1 OQD       0.052700
     69 H411        22.1690     1.4070    21.8010 hc         1 OQD       0.066700
     70 H412        21.4870     0.9870    20.2470 hc         1 OQD       0.066700
     71 H422        14.9150    -4.6510    15.6610 hc         1 OQD       0.042200
     72 H421        16.0320    -5.9320    15.2700 hc         1 OQD       0.042200
     73 H431        15.5930    -2.3150    15.8260 hc         1 OQD       0.037033
     74 H433        17.2880    -1.8720    15.9100 hc         1 OQD       0.037033
     75 H432        16.5400    -2.1750    14.3460 hc         1 OQD       0.037033
     76 H442        14.5450    -5.4000    13.3530 hc         1 OQD       0.036033
     77 H443        15.1420    -3.7490    13.3020 hc         1 OQD       0.036033
     78 H441        16.2140    -5.0920    12.9140 hc         1 OQD       0.036033
     79 H011        20.7620     2.1100    16.7350 hn         1 OQD       0.322500
     80 H071        19.6140    -2.6330    13.4370 hn         1 OQD       0.326500
     81 H291        18.6570    -6.0570    15.8230 hn         1 OQD       0.340500
     82 H101        20.3660     0.6070    12.5680 ho         1 OQD       0.405000
     83 C08         19.3760    -3.4060    15.2920 c          1 OQD       0.647100
     84 C03         19.5640     0.2980    14.9740 c3         1 OQD      -0.125400
     85 C19         21.8380     0.6520    17.6400 c          1 OQD       0.756100
     86 C30         19.0390    -6.4150    13.8560 c          1 OQD       0.759100
     87 O12         19.7130    -3.4750    16.4660 o          1 OQD      -0.603100
     88 H351        24.8950     2.6820    17.3270 h1         1 OQD       0.060700
     89 C34         19.7830    -8.5660    13.2680 c3         1 OQD       0.147700
@<TRIPOS>BOND
     1     1    13 1   
     2     1    14 ar  
     3     1    16 ar  
     4     2    14 ar  
     5     2    15 ar  
     6     2    39 1   
     7     3    15 ar  
     8     3    16 ar  
     9     3    40 1   
    10     4    21 1   
    11     4    23 1   
    12     4    34 1   
    13     4    41 1   
    14     5    17 ar  
    15     5    18 ar  
    16     5    42 1   
    17     6    18 ar  
    18     6    19 ar  
    19     6    43 1   
    20     7    17 ar  
    21     7    19 ar  
    22     7    44 1   
    23     8     9 1   
    24     8    29 1   
    25     8    45 1   
    26     8    84 1   
    27     9    17 1   
    28     9    48 1   
    29     9    49 1   
    30    10    11 1   
    31    10    32 1   
    32    10    50 1   
    33    10    84 1   
    34    11    13 1   
    35    11    30 1   
    36    11    51 1   
    37    12    20 1   
    38    12    31 1   
    39    12    52 1   
    40    12    83 1   
    41    13    53 1   
    42    13    54 1   
    43    14    55 1   
    44    15    56 1   
    45    16    57 1   
    46    18    58 1   
    47    19    59 1   
    48    20    26 1   
    49    20    27 1   
    50    20    60 1   
    51    21    37 1   
    52    21    64 1   
    53    21    88 1   
    54    22    23 1   
    55    22    37 1   
    56    22    38 1   
    57    22    65 1   
    58    23    25 1   
    59    23    66 1   
    60    24    25 1   
    61    24    38 1   
    62    24    67 1   
    63    24    68 1   
    64    25    69 1   
    65    25    70 1   
    66    26    28 1   
    67    26    71 1   
    68    26    72 1   
    69    27    73 1   
    70    27    74 1   
    71    27    75 1   
    72    28    76 1   
    73    28    77 1   
    74    28    78 1   
    75    29    79 1   
    76    29    85 1   
    77    30    80 1   
    78    30    83 1   
    79    31    81 1   
    80    31    86 1   
    81    32    82 1   
    82    33    85 2   
    83    34    85 1   
    84    35    86 1   
    85    35    89 1   
    86    36    86 2   
    87    46    84 1   
    88    47    84 1   
    89    61    89 1   
    90    62    89 1   
    91    63    89 1   
    92    83    87 2   
@<TRIPOS>SUBSTRUCTURE
     1 OQD         1 TEMP              0 ****  ****    0 ROOT
