@<TRIPOS>MOLECULE
OQE
   39    40     1     0     0
SMALL
No Charge or Current Charge


@<TRIPOS>ATOM
      1 C05          8.0210     4.3550    19.1590 ca         1 OQE      -0.131500
      2 C06          8.0320     5.0310    20.4060 ca         1 OQE       0.109100
      3 C08          7.7200     3.5080    22.2820 c3         1 OQE       0.073600
      4 C09          8.8880     3.8990    23.2320 c          1 OQE       0.566100
      5 C11         10.0640     1.6680    22.9100 c3         1 OQE       0.130000
      6 C12         10.7920     1.8840    21.5630 c3         1 OQE      -0.085100
      7 C13         12.0360     2.7600    21.6810 ca         1 OQE      -0.050300
      8 C14         12.0750     4.0260    21.0640 ca         1 OQE      -0.102500
      9 C15         13.2200     4.8340    21.1760 ca         1 OQE      -0.123500
     10 C16         14.3320     4.3820    21.9030 ca         1 OQE      -0.142000
     11 C17         14.3010     3.1190    22.5180 ca         1 OQE      -0.123500
     12 C18         13.1560     2.3100    22.4070 ca         1 OQE      -0.102500
     13 C20          8.8390     6.1700    20.5860 ca         1 OQE      -0.163000
     14 C21          9.6660     6.6310    19.5510 ca         1 OQE      -0.167000
     15 C22          9.6870     5.9530    18.3260 ca         1 OQE      -0.173000
     16 C23          8.8690     4.8260    18.1300 ca         1 OQE      -0.081000
     17 N10          9.7810     2.9200    23.6200 ns         1 OQE      -0.517900
     18 O01          5.6070     3.0430    19.4350 o          1 OQE      -0.917167
     19 O03          6.7790     2.7660    17.3120 o          1 OQE      -0.917167
     20 O04          7.6180     1.6770    19.3130 o          1 OQE      -0.917167
     21 O07          7.2620     4.6130    21.4660 os         1 OQE      -0.326100
     22 O19          9.0140     5.0210    23.7060 o          1 OQE      -0.643100
     23 P02          6.9440     2.9000    18.7890 p5         1 OQE       1.160000
     24 H082         6.9090     3.1480    22.9250 h1         1 OQE       0.100200
     25 H081         8.0230     2.6700    21.6530 h1         1 OQE       0.100200
     26 H111         9.1300     1.1140    22.7510 h1         1 OQE       0.035700
     27 H112        10.7000     1.0540    23.5600 h1         1 OQE       0.035700
     28 H122        10.0940     2.3170    20.8380 hc         1 OQE       0.101200
     29 H121        11.0660     0.9040    21.1550 hc         1 OQE       0.101200
     30 H141        11.2190     4.3860    20.4990 ha         1 OQE       0.128000
     31 H151        13.2420     5.8110    20.6980 ha         1 OQE       0.096000
     32 H161        15.2180     5.0070    21.9890 ha         1 OQE       0.085000
     33 H171        15.1630     2.7670    23.0810 ha         1 OQE       0.096000
     34 H181        13.1410     1.3330    22.8860 ha         1 OQE       0.128000
     35 H201         8.8280     6.6940    21.5380 ha         1 OQE       0.097000
     36 H211        10.2930     7.5070    19.7020 ha         1 OQE       0.061000
     37 H221        10.3300     6.3020    17.5220 ha         1 OQE       0.064000
     38 H231         8.8880     4.3190    17.1680 ha         1 OQE       0.136000
     39 H101        10.4700     3.2220    24.2980 hn         1 OQE       0.278500
@<TRIPOS>BOND
     1     1     2 ar  
     2     1    16 ar  
     3     1    23 1   
     4     2    13 ar  
     5     2    21 1   
     6     3     4 1   
     7     3    21 1   
     8     3    24 1   
     9     3    25 1   
    10     4    17 1   
    11     4    22 2   
    12     5     6 1   
    13     5    17 1   
    14     5    26 1   
    15     5    27 1   
    16     6     7 1   
    17     6    28 1   
    18     6    29 1   
    19     7     8 ar  
    20     7    12 ar  
    21     8     9 ar  
    22     8    30 1   
    23     9    10 ar  
    24     9    31 1   
    25    10    11 ar  
    26    10    32 1   
    27    11    12 ar  
    28    11    33 1   
    29    12    34 1   
    30    13    14 ar  
    31    13    35 1   
    32    14    15 ar  
    33    14    36 1   
    34    15    16 ar  
    35    15    37 1   
    36    16    38 1   
    37    17    39 1   
    38    18    23 1   
    39    19    23 1   
    40    20    23 1   
@<TRIPOS>SUBSTRUCTURE
     1 OQE         1 TEMP              0 ****  ****    0 ROOT
