@<TRIPOS>MOLECULE
OQE
   39    40     1     0     0
SMALL
abcg2


@<TRIPOS>ATOM
      1 C05          8.2190     4.3390    19.2660 ca         1 OQE      -0.131500
      2 C06          8.1050     5.0610    20.4620 ca         1 OQE       0.109100
      3 C08          7.7620     3.5560    22.2260 c3         1 OQE       0.073600
      4 C09          8.8470     3.9920    23.2040 c          1 OQE       0.566100
      5 C11          9.9910     1.7550    23.0050 c3         1 OQE       0.130000
      6 C12         10.7180     1.7390    21.6520 c3         1 OQE      -0.085100
      7 C13         11.9240     2.6310    21.6290 ca         1 OQE      -0.050300
      8 C14         11.8450     3.9130    21.0870 ca         1 OQE      -0.102500
      9 C15         12.9480     4.7570    21.0920 ca         1 OQE      -0.123500
     10 C16         14.1520     4.3300    21.6390 ca         1 OQE      -0.142000
     11 C17         14.2420     3.0540    22.1810 ca         1 OQE      -0.123500
     12 C18         13.1360     2.2150    22.1750 ca         1 OQE      -0.102500
     13 C20          8.7940     6.2550    20.6660 ca         1 OQE      -0.163000
     14 C21          9.6350     6.7610    19.6860 ca         1 OQE      -0.167000
     15 C22          9.7870     6.0600    18.4990 ca         1 OQE      -0.173000
     16 C23          9.0760     4.8830    18.3040 ca         1 OQE      -0.081000
     17 N10          9.7650     3.0750    23.5580 ns         1 OQE      -0.517900
     18 O01          5.8310     3.0130    19.2360 o          1 OQE      -0.917167
     19 O03          7.4960     2.6280    17.3200 o          1 OQE      -0.917167
     20 O04          7.9820     1.6560    19.6390 o          1 OQE      -0.917167
     21 O07          7.2810     4.6520    21.4820 os         1 OQE      -0.326100
     22 O19          8.8440     5.1140    23.6890 o          1 OQE      -0.643100
     23 P02          7.2810     2.7600    18.8290 p5         1 OQE       1.160000
     24 H082         6.9240     3.1800    22.8220 h1         1 OQE       0.100200
     25 H081         8.0660     2.7450    21.5600 h1         1 OQE       0.100200
     26 H111         9.0510     1.2070    22.9200 h1         1 OQE       0.035700
     27 H112        10.5870     1.2170    23.7420 h1         1 OQE       0.035700
     28 H122        10.0210     2.0140    20.8580 hc         1 OQE       0.101200
     29 H121        11.0090     0.7030    21.4590 hc         1 OQE       0.101200
     30 H141        10.9120     4.2550    20.6540 ha         1 OQE       0.128000
     31 H151        12.8670     5.7490    20.6640 ha         1 OQE       0.096000
     32 H161        15.0130     4.9850    21.6410 ha         1 OQE       0.085000
     33 H171        15.1770     2.7100    22.6050 ha         1 OQE       0.096000
     34 H181        13.2170     1.2180    22.5960 ha         1 OQE       0.128000
     35 H201         8.6670     6.7850    21.6000 ha         1 OQE       0.097000
     36 H211        10.1680     7.6880    19.8560 ha         1 OQE       0.061000
     37 H221        10.4410     6.4350    17.7210 ha         1 OQE       0.064000
     38 H231         9.1750     4.3590    17.3630 ha         1 OQE       0.136000
     39 H101        10.4590     3.4050    24.2120 hn         1 OQE       0.278500
@<TRIPOS>BOND
     1     1     2 ar  
     2     1    16 ar  
     3     1    23 1   
     4     2    13 ar  
     5     2    21 1   
     6     3     4 1   
     7     3    21 1   
     8     3    24 1   
     9     3    25 1   
    10     4    17 1   
    11     4    22 2   
    12     5     6 1   
    13     5    17 1   
    14     5    26 1   
    15     5    27 1   
    16     6     7 1   
    17     6    28 1   
    18     6    29 1   
    19     7     8 ar  
    20     7    12 ar  
    21     8     9 ar  
    22     8    30 1   
    23     9    10 ar  
    24     9    31 1   
    25    10    11 ar  
    26    10    32 1   
    27    11    12 ar  
    28    11    33 1   
    29    12    34 1   
    30    13    14 ar  
    31    13    35 1   
    32    14    15 ar  
    33    14    36 1   
    34    15    16 ar  
    35    15    37 1   
    36    16    38 1   
    37    17    39 1   
    38    18    23 1   
    39    19    23 1   
    40    20    23 1   
@<TRIPOS>SUBSTRUCTURE
     1 OQE         1 TEMP              0 ****  ****    0 ROOT
