@<TRIPOS>MOLECULE
OQF
   48    51     1     0     0
SMALL
No Charge or Current Charge


@<TRIPOS>ATOM
      1 N1           9.3450     0.3790    22.8100 n          1 OQF      -0.235400
      2 N3           7.4310    -0.2370    19.7020 na         1 OQF       0.065600
      3 C4           9.8390    -2.0380    23.0570 ca         1 OQF      -0.061500
      4 C5           9.2660    -0.8510    23.5580 ca         1 OQF      -0.133000
      5 C6           8.3870    -0.9420    24.6550 ca         1 OQF      -0.061500
      6 C7           8.1780    -2.1710    25.3040 ca         1 OQF      -0.185500
      7 C8           9.7050     1.6150    23.5560 c3         1 OQF       0.080700
      8 C10         12.2210     1.1650    23.3140 cc         1 OQF      -0.244000
      9 C13          8.4300    -0.6810    20.6830 c3         1 OQF       0.011600
     10 C15          4.3600     1.1050    18.7300 ca         1 OQF      -0.027000
     11 C17          4.3230     1.1750    21.1870 ca         1 OQF      -0.076000
     12 O            9.4080     1.5170    20.8020 o          1 OQF      -0.568100
     13 C12          9.1180     0.4890    21.4080 c          1 OQF       0.581100
     14 C19          6.2230     0.3040    20.0090 ca         1 OQF      -0.059200
     15 C18          5.6110     0.6020    21.2350 ca         1 OQF      -0.112000
     16 C16          3.7000     1.4250    19.9390 ca         1 OQF      -0.140000
     17 C14          5.6410     0.5370    18.8030 ca         1 OQF       0.015400
     18 N5           6.4850     0.1360    17.7690 nc         1 OQF      -0.216400
     19 N4           7.5950    -0.3470    18.3360 nd         1 OQF      -0.155400
     20 C9          11.1530     2.0280    23.4170 cd         1 OQF       0.265300
     21 N2          11.4940     3.3740    23.4060 nd         1 OQF      -0.637000
     22 C11         12.8100     3.5050    23.2800 cc         1 OQF       0.418300
     23 S           13.7270     2.0250    23.1750 ss         1 OQF      -0.040400
     24 C3           9.6300    -3.2640    23.7090 ca         1 OQF      -0.185500
     25 C2           8.8050    -3.3460    24.8470 ca         1 OQF       0.343000
     26 N            8.5940    -4.5870    25.5020 nh         1 OQF      -0.821400
     27 C1           7.3430    -4.8670    26.2480 c3         1 OQF       0.210100
     28 C            9.6150    -5.6610    25.4740 c3         1 OQF       0.210100
     29 H1          10.4750    -2.0100    22.1750 ha         1 OQF       0.119000
     30 H2           7.8570    -0.0610    25.0100 ha         1 OQF       0.119000
     31 H3           7.5200    -2.2010    26.1670 ha         1 OQF       0.119000
     32 H4           9.0640     2.4390    23.2170 h1         1 OQF       0.081200
     33 H5           9.5040     1.4740    24.6240 h1         1 OQF       0.081200
     34 H6          12.2150     0.0830    23.3100 h4         1 OQF       0.163000
     35 H7           7.9170    -1.3110    21.4160 h1         1 OQF       0.090200
     36 H8           9.2020    -1.2790    20.1870 h1         1 OQF       0.090200
     37 H9           3.8890     1.2930    17.7680 ha         1 OQF       0.133000
     38 H10          3.8060     1.4250    22.1110 ha         1 OQF       0.114000
     39 H11          6.1020     0.4030    22.1850 ha         1 OQF       0.121000
     40 H12          2.7070     1.8670    19.9100 ha         1 OQF       0.117000
     41 H13         13.3330     4.4530    23.2430 h5         1 OQF       0.053100
     42 H14         10.1020    -4.1560    23.3100 ha         1 OQF       0.119000
     43 H15          7.1580    -5.9480    26.3110 h1         1 OQF       0.039700
     44 H16          7.4050    -4.4650    27.2690 h1         1 OQF       0.039700
     45 H17          6.4810    -4.4130    25.7410 h1         1 OQF       0.039700
     46 H18          9.5150    -6.3200    26.3470 h1         1 OQF       0.039700
     47 H19          9.5100    -6.2690    24.5650 h1         1 OQF       0.039700
     48 H20         10.6270    -5.2330    25.4970 h1         1 OQF       0.039700
@<TRIPOS>BOND
     1     1     4 1   
     2     1     7 1   
     3     1    13 1   
     4     2     9 1   
     5     2    14 1   
     6     2    19 1   
     7     3     4 ar  
     8     3    24 ar  
     9     3    29 1   
    10     4     5 ar  
    11     5     6 ar  
    12     5    30 1   
    13     6    25 ar  
    14     6    31 1   
    15     7    20 1   
    16     7    32 1   
    17     7    33 1   
    18     8    20 2   
    19     8    23 1   
    20     8    34 1   
    21     9    13 1   
    22     9    35 1   
    23     9    36 1   
    24    10    16 ar  
    25    10    17 ar  
    26    10    37 1   
    27    11    15 ar  
    28    11    16 ar  
    29    11    38 1   
    30    12    13 2   
    31    14    15 ar  
    32    14    17 ar  
    33    15    39 1   
    34    16    40 1   
    35    17    18 1   
    36    18    19 2   
    37    20    21 1   
    38    21    22 2   
    39    22    23 1   
    40    22    41 1   
    41    24    25 ar  
    42    24    42 1   
    43    25    26 1   
    44    26    27 1   
    45    26    28 1   
    46    27    43 1   
    47    27    44 1   
    48    27    45 1   
    49    28    46 1   
    50    28    47 1   
    51    28    48 1   
@<TRIPOS>SUBSTRUCTURE
     1 OQF         1 TEMP              0 ****  ****    0 ROOT
