@<TRIPOS>MOLECULE
OQF
   48    51     1     0     0
SMALL
abcg2


@<TRIPOS>ATOM
      1 N1           9.1590     0.4790    23.0340 n          1 OQF      -0.235400
      2 N3           7.1450    -0.1750    20.0350 na         1 OQF       0.065600
      3 C4          10.0250    -1.8010    23.3800 ca         1 OQF      -0.061500
      4 C5           9.1270    -0.7900    23.7040 ca         1 OQF      -0.133000
      5 C6           8.1900    -1.0200    24.7080 ca         1 OQF      -0.061500
      6 C7           8.1430    -2.2320    25.3740 ca         1 OQF      -0.185500
      7 C8           9.8220     1.5930    23.7070 c3         1 OQF       0.080700
      8 C10         11.9630     1.1020    22.3810 cc         1 OQF      -0.244000
      9 C13          7.8960    -0.5370    21.2080 c3         1 OQF       0.011600
     10 C15          4.5320     1.1690    18.1020 ca         1 OQF      -0.027000
     11 C17          3.7920     1.3150    20.4230 ca         1 OQF      -0.076000
     12 O            8.6070     1.7640    21.2430 o          1 OQF      -0.568100
     13 C12          8.5850     0.6860    21.8270 c          1 OQF       0.581100
     14 C19          5.9140     0.3990    19.9570 ca         1 OQF      -0.059200
     15 C18          4.9560     0.7540    20.9110 ca         1 OQF      -0.112000
     16 C16          3.5810     1.5200    19.0390 ca         1 OQF      -0.140000
     17 C14          5.7200     0.6000    18.5810 ca         1 OQF       0.015400
     18 N5           6.8410     0.1500    17.9230 nc         1 OQF      -0.216400
     19 N4           7.6780    -0.2990    18.8010 nd         1 OQF      -0.155400
     20 C9          11.2930     1.6870    23.4140 cd         1 OQF       0.265300
     21 N2          12.0740     2.4610    24.2440 nd         1 OQF      -0.637000
     22 C11         13.3160     2.4670    23.8520 cc         1 OQF       0.418300
     23 S           13.6270     1.5260    22.4410 ss         1 OQF      -0.040400
     24 C3           9.9860    -3.0230    24.0340 ca         1 OQF      -0.185500
     25 C2           9.0510    -3.2700    25.0640 ca         1 OQF       0.343000
     26 N            9.0270    -4.4660    25.7380 nh         1 OQF      -0.821400
     27 C1           7.9170    -4.7630    26.6270 c3         1 OQF       0.210100
     28 C            9.8220    -5.5810    25.2520 c3         1 OQF       0.210100
     29 H1          10.7540    -1.6410    22.5970 ha         1 OQF       0.119000
     30 H2           7.4810    -0.2410    24.9610 ha         1 OQF       0.119000
     31 H3           7.3930    -2.3720    26.1370 ha         1 OQF       0.119000
     32 H4           9.3310     2.5190    23.4050 h1         1 OQF       0.081200
     33 H5           9.6790     1.4740    24.7810 h1         1 OQF       0.081200
     34 H6          11.5780     0.4640    21.6040 h4         1 OQF       0.163000
     35 H7           7.2300    -1.0120    21.9270 h1         1 OQF       0.090200
     36 H8           8.6450    -1.2710    20.9160 h1         1 OQF       0.090200
     37 H9           4.3750     1.3250    17.0430 ha         1 OQF       0.133000
     38 H10          3.0150     1.6100    21.1170 ha         1 OQF       0.114000
     39 H11          5.1160     0.6010    21.9690 ha         1 OQF       0.121000
     40 H12          2.6490     1.9630    18.7140 ha         1 OQF       0.117000
     41 H13         14.1100     3.0030    24.3520 h5         1 OQF       0.053100
     42 H14         10.6900    -3.7860    23.7410 ha         1 OQF       0.119000
     43 H15          8.0900    -5.7290    27.0950 h1         1 OQF       0.039700
     44 H16          7.8380    -4.0160    27.4190 h1         1 OQF       0.039700
     45 H17          6.9570    -4.8010    26.0960 h1         1 OQF       0.039700
     46 H18          9.7100    -6.4170    25.9370 h1         1 OQF       0.039700
     47 H19          9.5130    -5.9080    24.2510 h1         1 OQF       0.039700
     48 H20         10.8810    -5.3200    25.2120 h1         1 OQF       0.039700
@<TRIPOS>BOND
     1     1     4 1   
     2     1     7 1   
     3     1    13 1   
     4     2     9 1   
     5     2    14 1   
     6     2    19 1   
     7     3     4 ar  
     8     3    24 ar  
     9     3    29 1   
    10     4     5 ar  
    11     5     6 ar  
    12     5    30 1   
    13     6    25 ar  
    14     6    31 1   
    15     7    20 1   
    16     7    32 1   
    17     7    33 1   
    18     8    20 2   
    19     8    23 1   
    20     8    34 1   
    21     9    13 1   
    22     9    35 1   
    23     9    36 1   
    24    10    16 ar  
    25    10    17 ar  
    26    10    37 1   
    27    11    15 ar  
    28    11    16 ar  
    29    11    38 1   
    30    12    13 2   
    31    14    15 ar  
    32    14    17 ar  
    33    15    39 1   
    34    16    40 1   
    35    17    18 1   
    36    18    19 2   
    37    20    21 1   
    38    21    22 2   
    39    22    23 1   
    40    22    41 1   
    41    24    25 ar  
    42    24    42 1   
    43    25    26 1   
    44    26    27 1   
    45    26    28 1   
    46    27    43 1   
    47    27    44 1   
    48    27    45 1   
    49    28    46 1   
    50    28    47 1   
    51    28    48 1   
@<TRIPOS>SUBSTRUCTURE
     1 OQF         1 TEMP              0 ****  ****    0 ROOT
