@<TRIPOS>MOLECULE
OQG
   86    89     1     0     0
SMALL
bcc


@<TRIPOS>ATOM
      1 C13         22.7120    -3.5880    14.5560 ca         1 OQG      -0.085300
      2 C15         22.6490    -6.0030    14.4450 ca         1 OQG      -0.128500
      3 C17         23.5810    -4.9240    16.3760 ca         1 OQG      -0.128500
      4 C22         23.8040     1.1360    18.9050 c5         1 OQG       0.139100
      5 C24         18.4670     2.1570    19.2960 ca         1 OQG      -0.119000
      6 C26         18.3780     0.8850    21.3360 ca         1 OQG      -0.129000
      7 C28         18.3680    -0.2330    19.2050 ca         1 OQG      -0.119000
      8 C02         19.7190     0.4270    16.4380 c3         1 OQG       0.123700
      9 C04         18.4460     1.0370    17.0360 c3         1 OQG      -0.047100
     10 C05         20.8490    -0.2190    14.2110 c3         1 OQG       0.140100
     11 C06         21.1100    -1.6630    14.6390 c3         1 OQG       0.109700
     12 C09         18.2250    -4.1530    14.7630 c3         1 OQG       0.051700
     13 C11         22.3720    -2.2420    13.9820 c3         1 OQG      -0.039100
     14 C14         22.3830    -4.7610    13.8830 ca         1 OQG      -0.115500
     15 C16         23.2470    -6.0890    15.6940 ca         1 OQG      -0.127000
     16 C18         23.3140    -3.6870    15.8090 ca         1 OQG      -0.115500
     17 C23         18.4270     0.9910    18.5380 ca         1 OQG      -0.087300
     18 C25         18.4370     2.1080    20.6840 ca         1 OQG      -0.129000
     19 C27         18.3450    -0.2880    20.5910 ca         1 OQG      -0.129000
     20 C31         16.9200    -3.8630    15.5150 c3         1 OQG      -0.067700
     21 C34         16.5570    -2.3860    15.4070 c3         1 OQG      -0.089600
     22 C35         15.7860    -4.7320    14.9840 c3         1 OQG      -0.089600
     23 C37         24.9610     2.0860    18.6610 c5         1 OQG       0.129400
     24 C39         24.1360     2.7800    20.6670 c5         1 OQG       0.323900
     25 C40         23.5020     1.3930    20.3900 c5         1 OQG      -0.147700
     26 C42         21.8720     3.1050    20.7030 c5         1 OQG       0.128400
     27 C43         22.0460     1.5980    20.8120 c5         1 OQG      -0.098400
     28 N01         20.8890     1.1410    16.9050 ns         1 OQG      -0.568900
     29 N07         19.9620    -2.5040    14.3760 ns         1 OQG      -0.555900
     30 N29         18.6120    -5.5380    14.8930 ns         1 OQG      -0.558900
     31 O10         20.6630    -0.2280    12.8100 oh         1 OQG      -0.601800
     32 O20         21.8840    -0.5610    18.0480 o          1 OQG      -0.584000
     33 O21         22.7370     1.5270    18.0460 os         1 OQG      -0.430900
     34 O32         19.3410    -7.5190    14.2540 os         1 OQG      -0.429900
     35 O33         19.0750    -5.9150    12.6960 o          1 OQG      -0.601000
     36 O38         24.6770     3.2240    19.4440 os         1 OQG      -0.412600
     37 O41         23.1340     3.6350    21.0960 os         1 OQG      -0.392600
     38 H151        22.3990    -6.9050    13.9020 ha         1 OQG       0.126500
     39 H171        24.0490    -4.9810    17.3500 ha         1 OQG       0.126500
     40 H221        24.0820     0.1000    18.7120 h1         1 OQG       0.084700
     41 H241        18.5130     3.1170    18.7950 ha         1 OQG       0.134000
     42 H261        18.3550     0.8430    22.4180 ha         1 OQG       0.131000
     43 H281        18.3360    -1.1550    18.6330 ha         1 OQG       0.134000
     44 H021        19.8040    -0.5960    16.8030 h1         1 OQG       0.104700
     45 H031        19.5410     1.4440    14.5560 hc         1 OQG       0.051200
     46 H032        18.7370    -0.1120    14.6130 hc         1 OQG       0.051200
     47 H042        18.3420     2.0690    16.6900 hc         1 OQG       0.051700
     48 H041        17.5880     0.4880    16.6380 hc         1 OQG       0.051700
     49 H051        21.7500     0.3510    14.4770 h1         1 OQG       0.043700
     50 H061        21.2720    -1.6690    15.7160 h1         1 OQG       0.102700
     51 H091        18.0560    -3.9590    13.7020 h1         1 OQG       0.083700
     52 H112        23.1950    -1.5430    14.1530 hc         1 OQG       0.057200
     53 H111        22.2330    -2.3170    12.9020 hc         1 OQG       0.057200
     54 H141        21.9130    -4.7040    12.9080 ha         1 OQG       0.133000
     55 H161        23.4550    -7.0560    16.1340 ha         1 OQG       0.126000
     56 H181        23.5680    -2.7830    16.3510 ha         1 OQG       0.133000
     57 H251        18.4630     3.0270    21.2560 ha         1 OQG       0.132500
     58 H271        18.2970    -1.2470    21.0900 ha         1 OQG       0.132500
     59 H311        17.0780    -4.1020    16.5720 hc         1 OQG       0.067700
     60 H343        17.3040    -1.7400    15.8700 hc         1 OQG       0.037867
     61 H341        16.4520    -2.0810    14.3630 hc         1 OQG       0.037867
     62 H342        15.6080    -2.1880    15.9050 hc         1 OQG       0.037867
     63 H352        14.8630    -4.5230    15.5260 hc         1 OQG       0.037867
     64 H353        15.6010    -4.5290    13.9260 hc         1 OQG       0.037867
     65 H351        15.9960    -5.7960    15.0900 hc         1 OQG       0.037867
     66 H362        19.9750    -9.3660    13.7710 h1         1 OQG       0.047367
     67 H363        18.9670    -8.6190    12.5190 h1         1 OQG       0.047367
     68 H361        20.6510    -8.0990    12.7320 h1         1 OQG       0.047367
     69 H372        25.8940     1.6020    18.9780 h1         1 OQG       0.060700
     70 H391        24.9190     2.7640    21.4340 h2         1 OQG       0.079700
     71 H401        23.9840     0.6150    20.9810 hc         1 OQG       0.077700
     72 H421        21.1120     3.5030    21.3740 h1         1 OQG       0.053700
     73 H422        21.6140     3.4090    19.6830 h1         1 OQG       0.053700
     74 H432        21.9270     1.2860    21.8510 hc         1 OQG       0.066700
     75 H431        21.3120     1.0420    20.2330 hc         1 OQG       0.066700
     76 H011        20.9460     2.1280    16.7000 hn         1 OQG       0.322500
     77 H071        19.6380    -2.5510    13.4210 hn         1 OQG       0.326500
     78 H291        18.6510    -5.9330    15.8210 hn         1 OQG       0.340500
     79 H101        20.5040     0.6740    12.5130 ho         1 OQG       0.405000
     80 C08         19.3690    -3.2850    15.2890 c          1 OQG       0.647100
     81 C03         19.6480     0.4130    14.9130 c3         1 OQG      -0.124400
     82 C19         21.8320     0.6020    17.6960 c          1 OQG       0.753100
     83 C30         19.0180    -6.2870    13.8500 c          1 OQG       0.759100
     84 O12         19.6950    -3.3390    16.4670 o          1 OQG      -0.601100
     85 H371        25.0710     2.3810    17.6170 h1         1 OQG       0.060700
     86 C36         19.7540    -8.4380    13.2510 c3         1 OQG       0.147700
@<TRIPOS>BOND
     1     1    13 1   
     2     1    14 ar  
     3     1    16 ar  
     4     2    14 ar  
     5     2    15 ar  
     6     2    38 1   
     7     3    15 ar  
     8     3    16 ar  
     9     3    39 1   
    10     4    23 1   
    11     4    25 1   
    12     4    33 1   
    13     4    40 1   
    14     5    17 ar  
    15     5    18 ar  
    16     5    41 1   
    17     6    18 ar  
    18     6    19 ar  
    19     6    42 1   
    20     7    17 ar  
    21     7    19 ar  
    22     7    43 1   
    23     8     9 1   
    24     8    28 1   
    25     8    44 1   
    26     8    81 1   
    27     9    17 1   
    28     9    47 1   
    29     9    48 1   
    30    10    11 1   
    31    10    31 1   
    32    10    49 1   
    33    10    81 1   
    34    11    13 1   
    35    11    29 1   
    36    11    50 1   
    37    12    20 1   
    38    12    30 1   
    39    12    51 1   
    40    12    80 1   
    41    13    52 1   
    42    13    53 1   
    43    14    54 1   
    44    15    55 1   
    45    16    56 1   
    46    18    57 1   
    47    19    58 1   
    48    20    21 1   
    49    20    22 1   
    50    20    59 1   
    51    21    60 1   
    52    21    61 1   
    53    21    62 1   
    54    22    63 1   
    55    22    64 1   
    56    22    65 1   
    57    23    36 1   
    58    23    69 1   
    59    23    85 1   
    60    24    25 1   
    61    24    36 1   
    62    24    37 1   
    63    24    70 1   
    64    25    27 1   
    65    25    71 1   
    66    26    27 1   
    67    26    37 1   
    68    26    72 1   
    69    26    73 1   
    70    27    74 1   
    71    27    75 1   
    72    28    76 1   
    73    28    82 1   
    74    29    77 1   
    75    29    80 1   
    76    30    78 1   
    77    30    83 1   
    78    31    79 1   
    79    32    82 2   
    80    33    82 1   
    81    34    83 1   
    82    34    86 1   
    83    35    83 2   
    84    45    81 1   
    85    46    81 1   
    86    66    86 1   
    87    67    86 1   
    88    68    86 1   
    89    80    84 2   
@<TRIPOS>SUBSTRUCTURE
     1 OQG         1 TEMP              0 ****  ****    0 ROOT
