@<TRIPOS>MOLECULE
OQG
   86    89     1     0     0
SMALL
No Charge or Current Charge


@<TRIPOS>ATOM
      1 C13         22.6580    -3.5450    14.3440 ca         1 OQG      -0.085300
      2 C15         22.4560    -5.9150    13.7890 ca         1 OQG      -0.110500
      3 C17         23.4320    -5.2450    15.9140 ca         1 OQG      -0.110500
      4 C22         23.8630     1.3810    18.9540 c5         1 OQG       0.162300
      5 C24         18.3610     2.2440    19.5090 ca         1 OQG      -0.101000
      6 C26         18.5660     1.0160    21.6010 ca         1 OQG      -0.111000
      7 C28         18.5980    -0.1760    19.4780 ca         1 OQG      -0.101000
      8 C02         19.6860     0.5350    16.5890 c3         1 OQG       0.123700
      9 C04         18.3900     1.0520    17.2560 c3         1 OQG      -0.047100
     10 C05         20.8400    -0.0260    14.3090 c3         1 OQG       0.163300
     11 C06         21.1250    -1.5200    14.6670 c3         1 OQG       0.109700
     12 C09         18.4440    -4.3240    14.5710 c3         1 OQG       0.051700
     13 C11         22.4090    -2.0790    13.9990 c3         1 OQG      -0.039100
     14 C14         22.2690    -4.5640    13.4500 ca         1 OQG      -0.097500
     15 C16         23.0380    -6.2560    15.0210 ca         1 OQG      -0.109000
     16 C18         23.2410    -3.8940    15.5780 ca         1 OQG      -0.097500
     17 C23         18.4520     1.0400    18.7820 ca         1 OQG      -0.087300
     18 C25         18.4160     2.2310    20.9130 ca         1 OQG      -0.111000
     19 C27         18.6570    -0.1880    20.8830 ca         1 OQG      -0.111000
     20 C31         16.9700    -3.9350    14.9040 c3         1 OQG      -0.067700
     21 C34         16.6570    -2.4490    14.5970 c3         1 OQG      -0.089600
     22 C35         15.9460    -4.8580    14.1970 c3         1 OQG      -0.089600
     23 C37         24.9390     2.4860    18.7830 c5         1 OQG       0.152600
     24 C39         24.1710     2.8390    20.9330 c5         1 OQG       0.370300
     25 C40         23.5780     1.4530    20.5110 c5         1 OQG      -0.147700
     26 C42         21.8730     3.1250    20.8790 c5         1 OQG       0.151600
     27 C43         22.0570     1.5900    20.8880 c5         1 OQG      -0.098400
     28 N01         20.8450     1.2880    17.0720 ns         1 OQG      -0.501900
     29 N07         19.9730    -2.3840    14.3670 ns         1 OQG      -0.488900
     30 N29         18.7470    -5.6980    15.0260 ns         1 OQG      -0.491900
     31 O10         20.6130     0.1040    12.8960 oh         1 OQG      -0.664000
     32 O20         22.0690    -0.4360    17.9640 o          1 OQG      -0.535000
     33 O21         22.7160     1.7770    18.1440 os         1 OQG      -0.454100
     34 O32         19.2000    -7.8660    14.9710 os         1 OQG      -0.453100
     35 O33         18.6580    -6.7930    13.0090 o          1 OQG      -0.552000
     36 O38         24.5380     3.5060    19.7150 os         1 OQG      -0.459000
     37 O41         23.0800     3.5700    21.5240 os         1 OQG      -0.439000
     38 H151        22.1470    -6.6960    13.0980 ha         1 OQG       0.108500
     39 H171        23.8790    -5.5090    16.8700 ha         1 OQG       0.108500
     40 H221        24.2580     0.4090    18.6260 h1         1 OQG       0.084700
     41 H241        18.2480     3.1920    18.9870 ha         1 OQG       0.116000
     42 H261        18.6110     1.0070    22.6880 ha         1 OQG       0.113000
     43 H281        18.6660    -1.1150    18.9330 ha         1 OQG       0.116000
     44 H021        19.7950    -0.5140    16.8960 h1         1 OQG       0.104700
     45 H031        19.4880     1.6190    14.7280 hc         1 OQG       0.051200
     46 H032        18.7060     0.0500    14.7170 hc         1 OQG       0.051200
     47 H042        18.1830     2.0660    16.8910 hc         1 OQG       0.051700
     48 H041        17.5480     0.4330    16.9220 hc         1 OQG       0.051700
     49 H051        21.7260     0.5590    14.5920 h1         1 OQG       0.043700
     50 H061        21.3100    -1.5620    15.7470 h1         1 OQG       0.102700
     51 H091        18.5850    -4.2720    13.4840 h1         1 OQG       0.083700
     52 H112        23.2660    -1.4700    14.3110 hc         1 OQG       0.057200
     53 H111        22.3340    -1.9610    12.9110 hc         1 OQG       0.057200
     54 H141        21.8080    -4.3090    12.4980 ha         1 OQG       0.115000
     55 H161        23.1810    -7.3020    15.2840 ha         1 OQG       0.108000
     56 H181        23.5360    -3.1180    16.2810 ha         1 OQG       0.115000
     57 H251        18.3430     3.1640    21.4680 ha         1 OQG       0.114500
     58 H271        18.7730    -1.1300    21.4140 ha         1 OQG       0.114500
     59 H311        16.8310    -4.0690    15.9850 hc         1 OQG       0.067700
     60 H343        17.2510    -1.7830    15.2320 hc         1 OQG       0.037867
     61 H341        16.8680    -2.2120    13.5470 hc         1 OQG       0.037867
     62 H342        15.6010    -2.2270    14.7920 hc         1 OQG       0.037867
     63 H352        14.9200    -4.5610    14.4450 hc         1 OQG       0.037867
     64 H353        16.0630    -4.8070    13.1080 hc         1 OQG       0.037867
     65 H351        16.0710    -5.9010    14.5090 hc         1 OQG       0.037867
     66 H362        19.6760    -9.9020    15.0150 h1         1 OQG       0.047367
     67 H363        18.4660    -9.4420    13.7970 h1         1 OQG       0.047367
     68 H361        20.1850    -9.0460    13.5430 h1         1 OQG       0.047367
     69 H372        25.9380     2.1200    19.0560 h1         1 OQG       0.060700
     70 H391        25.0280     2.7520    21.6150 h2         1 OQG       0.079700
     71 H401        24.0630     0.6280    21.0440 hc         1 OQG       0.077700
     72 H421        20.9940     3.4560    21.4470 h1         1 OQG       0.053700
     73 H422        21.8210     3.5390    19.8630 h1         1 OQG       0.053700
     74 H432        21.8750     1.2020    21.8960 hc         1 OQG       0.066700
     75 H431        21.3570     1.0640    20.2350 hc         1 OQG       0.066700
     76 H011        20.8430     2.2960    16.9910 hn         1 OQG       0.322500
     77 H071        19.5910    -2.3420    13.4300 hn         1 OQG       0.326500
     78 H291        18.9740    -5.8500    16.0010 hn         1 OQG       0.340500
     79 H101        20.5210     1.0630    12.7050 ho         1 OQG       0.444000
     80 C08         19.4820    -3.3590    15.2110 c          1 OQG       0.580100
     81 C03         19.6110     0.5750    15.0430 c3         1 OQG      -0.124400
     82 C19         21.9030     0.7530    17.7480 c          1 OQG       0.637100
     83 C30         18.8410    -6.7920    14.2160 c          1 OQG       0.643100
     84 O12         19.8580    -3.4670    16.3720 o          1 OQG      -0.601100
     85 H371        24.9770     2.8950    17.7650 h1         1 OQG       0.060700
     86 C36         19.3900    -9.1230    14.2970 c3         1 OQG       0.170900
@<TRIPOS>BOND
     1     1    13 1   
     2     1    14 ar  
     3     1    16 ar  
     4     2    14 ar  
     5     2    15 ar  
     6     2    38 1   
     7     3    15 ar  
     8     3    16 ar  
     9     3    39 1   
    10     4    23 1   
    11     4    25 1   
    12     4    33 1   
    13     4    40 1   
    14     5    17 ar  
    15     5    18 ar  
    16     5    41 1   
    17     6    18 ar  
    18     6    19 ar  
    19     6    42 1   
    20     7    17 ar  
    21     7    19 ar  
    22     7    43 1   
    23     8     9 1   
    24     8    28 1   
    25     8    44 1   
    26     8    81 1   
    27     9    17 1   
    28     9    47 1   
    29     9    48 1   
    30    10    11 1   
    31    10    31 1   
    32    10    49 1   
    33    10    81 1   
    34    11    13 1   
    35    11    29 1   
    36    11    50 1   
    37    12    20 1   
    38    12    30 1   
    39    12    51 1   
    40    12    80 1   
    41    13    52 1   
    42    13    53 1   
    43    14    54 1   
    44    15    55 1   
    45    16    56 1   
    46    18    57 1   
    47    19    58 1   
    48    20    21 1   
    49    20    22 1   
    50    20    59 1   
    51    21    60 1   
    52    21    61 1   
    53    21    62 1   
    54    22    63 1   
    55    22    64 1   
    56    22    65 1   
    57    23    36 1   
    58    23    69 1   
    59    23    85 1   
    60    24    25 1   
    61    24    36 1   
    62    24    37 1   
    63    24    70 1   
    64    25    27 1   
    65    25    71 1   
    66    26    27 1   
    67    26    37 1   
    68    26    72 1   
    69    26    73 1   
    70    27    74 1   
    71    27    75 1   
    72    28    76 1   
    73    28    82 1   
    74    29    77 1   
    75    29    80 1   
    76    30    78 1   
    77    30    83 1   
    78    31    79 1   
    79    32    82 2   
    80    33    82 1   
    81    34    83 1   
    82    34    86 1   
    83    35    83 2   
    84    45    81 1   
    85    46    81 1   
    86    66    86 1   
    87    67    86 1   
    88    68    86 1   
    89    80    84 2   
@<TRIPOS>SUBSTRUCTURE
     1 OQG         1 TEMP              0 ****  ****    0 ROOT
