@<TRIPOS>MOLECULE
OQH
   30    30     1     0     0
SMALL
No Charge or Current Charge


@<TRIPOS>ATOM
      1 C1          -4.8490     0.7620     0.6280 c3         1 OQH       0.107000
      2 C2          -2.7970    -0.0750    -0.5690 c          1 OQH       0.596100
      3 C3          -1.5760    -0.9910    -0.4310 c3         1 OQH      -0.150400
      4 C4          -0.2550    -0.1790    -0.2910 c3         1 OQH      -0.164400
      5 C5           1.0420    -1.0030    -0.1660 c          1 OQH       0.582700
      6 C6           2.3740    -0.2840    -0.0360 ca         1 OQH      -0.178600
      7 C7           3.5680    -1.0370     0.0720 ca         1 OQH      -0.063500
      8 C9           4.8890     1.0030     0.2100 ca         1 OQH      -0.082000
      9 C8           4.8130    -0.3980     0.1940 ca         1 OQH      -0.125500
     10 C10          3.7150     1.7640     0.1040 ca         1 OQH      -0.125500
     11 C11          2.4660     1.1300    -0.0180 ca         1 OQH      -0.063500
     12 N           -3.6110    -0.0150     0.5400 ns         1 OQH      -0.512900
     13 C           -6.0260     0.0590    -0.0700 c3         1 OQH      -0.113100
     14 O           -3.0410     0.5410    -1.5970 o          1 OQH      -0.612100
     15 O1           0.9970    -2.2280    -0.1710 o          1 OQH      -0.534100
     16 H1          -5.0930     0.9120     1.6890 h1         1 OQH       0.050200
     17 H2          -4.6890     1.7510     0.1770 h1         1 OQH       0.050200
     18 H3          -1.6870    -1.6310     0.4530 hc         1 OQH       0.068700
     19 H4          -1.5080    -1.6130    -1.3310 hc         1 OQH       0.068700
     20 H5          -0.1230     0.5200    -1.1260 hc         1 OQH       0.080200
     21 H6          -0.2950     0.5100     0.5610 hc         1 OQH       0.080200
     22 H7           3.5360    -2.1250     0.0630 ha         1 OQH       0.126000
     23 H8           5.8530     1.4970     0.3040 ha         1 OQH       0.115000
     24 H9           5.7210    -0.9910     0.2760 ha         1 OQH       0.117000
     25 H10          3.7720     2.8510     0.1160 ha         1 OQH       0.117000
     26 H11          1.5800     1.7560    -0.0970 ha         1 OQH       0.126000
     27 H12         -3.3270    -0.5630     1.3440 hn         1 OQH       0.313500
     28 H13         -6.9390     0.6570     0.0310 hc         1 OQH       0.042033
     29 H14         -5.8210    -0.0770    -1.1390 hc         1 OQH       0.042033
     30 H15         -6.2080    -0.9250     0.3770 hc         1 OQH       0.042033
@<TRIPOS>BOND
     1     1    12 1   
     2     1    13 1   
     3     1    16 1   
     4     1    17 1   
     5     2     3 1   
     6     2    12 1   
     7     2    14 2   
     8     3     4 1   
     9     3    18 1   
    10     3    19 1   
    11     4     5 1   
    12     4    20 1   
    13     4    21 1   
    14     5     6 1   
    15     5    15 2   
    16     6     7 ar  
    17     6    11 ar  
    18     7     9 ar  
    19     7    22 1   
    20     8     9 ar  
    21     8    10 ar  
    22     8    23 1   
    23     9    24 1   
    24    10    11 ar  
    25    10    25 1   
    26    11    26 1   
    27    12    27 1   
    28    13    28 1   
    29    13    29 1   
    30    13    30 1   
@<TRIPOS>SUBSTRUCTURE
     1 OQH         1 TEMP              0 ****  ****    0 ROOT
