@<TRIPOS>MOLECULE
OQH
   30    30     1     0     0
SMALL
bcc


@<TRIPOS>ATOM
      1 C1          -5.0800     0.5820     0.0210 c3         1 OQH       0.107000
      2 C2          -2.6290     0.4240    -0.0010 c          1 OQH       0.663100
      3 C3          -1.4620    -0.5450    -0.0020 c3         1 OQH      -0.150400
      4 C4          -0.1190     0.1590    -0.0020 c3         1 OQH      -0.164400
      5 C5           1.0490    -0.7940    -0.0030 c          1 OQH       0.582700
      6 C6           2.4270    -0.2220    -0.0060 ca         1 OQH      -0.178600
      7 C7           3.5180    -1.0940     0.0010 ca         1 OQH      -0.081500
      8 C9           5.0360     0.7710    -0.0090 ca         1 OQH      -0.100000
      9 C8           4.8120    -0.6010    -0.0010 ca         1 OQH      -0.143500
     10 C10          3.9590     1.6460    -0.0160 ca         1 OQH      -0.143500
     11 C11          2.6620     1.1530    -0.0140 ca         1 OQH      -0.081500
     12 N           -3.8360    -0.1610     0.0160 ns         1 OQH      -0.579900
     13 C           -6.2620    -0.3700     0.0260 c3         1 OQH      -0.113100
     14 O           -2.4890     1.6400    -0.0150 o          1 OQH      -0.612100
     15 O1           0.8870    -1.9970    -0.0020 o          1 OQH      -0.534100
     16 H1          -5.1230     1.2340     0.8970 h1         1 OQH       0.050200
     17 H2          -5.1290     1.2310    -0.8570 h1         1 OQH       0.050200
     18 H3          -1.5520    -1.2010     0.8680 hc         1 OQH       0.068700
     19 H4          -1.5530    -1.1970    -0.8750 hc         1 OQH       0.068700
     20 H5          -0.0290     0.8180    -0.8700 hc         1 OQH       0.080200
     21 H6          -0.0270     0.8160     0.8670 hc         1 OQH       0.080200
     22 H7           3.3530    -2.1630     0.0070 ha         1 OQH       0.144000
     23 H8           6.0480     1.1550    -0.0110 ha         1 OQH       0.133000
     24 H9           5.6490    -1.2880     0.0050 ha         1 OQH       0.135000
     25 H10          4.1260     2.7150    -0.0230 ha         1 OQH       0.135000
     26 H11          1.8420     1.8570    -0.0190 ha         1 OQH       0.144000
     27 H12         -3.8860    -1.1670     0.0340 hn         1 OQH       0.313500
     28 H13         -7.1950     0.1920     0.0270 hc         1 OQH       0.042033
     29 H14         -6.2600    -1.0090    -0.8580 hc         1 OQH       0.042033
     30 H15         -6.2550    -1.0070     0.9110 hc         1 OQH       0.042033
@<TRIPOS>BOND
     1     1    12 1   
     2     1    13 1   
     3     1    16 1   
     4     1    17 1   
     5     2     3 1   
     6     2    12 1   
     7     2    14 2   
     8     3     4 1   
     9     3    18 1   
    10     3    19 1   
    11     4     5 1   
    12     4    20 1   
    13     4    21 1   
    14     5     6 1   
    15     5    15 2   
    16     6     7 ar  
    17     6    11 ar  
    18     7     9 ar  
    19     7    22 1   
    20     8     9 ar  
    21     8    10 ar  
    22     8    23 1   
    23     9    24 1   
    24    10    11 ar  
    25    10    25 1   
    26    11    26 1   
    27    12    27 1   
    28    13    28 1   
    29    13    29 1   
    30    13    30 1   
@<TRIPOS>SUBSTRUCTURE
     1 OQH         1 TEMP              0 ****  ****    0 ROOT
