@<TRIPOS>MOLECULE
OQI
   65    70     1     0     0
SMALL
abcg2


@<TRIPOS>ATOM
      1 C8         -11.6090   -22.1570    15.3130 ca         1 OQI      -0.087000
      2 C10        -13.7470   -21.2640    14.7210 ca         1 OQI      -0.087000
      3 C25         -8.3310   -15.7990    10.6850 ca         1 OQI      -0.111000
      4 C36         -5.4400   -13.1810    12.9370 ca         1 OQI      -0.113000
      5 C7         -12.1880   -22.9040    16.3290 ca         1 OQI      -0.135000
      6 C11        -14.3360   -22.0110    15.7270 ca         1 OQI      -0.135000
      7 C35         -5.8170   -11.8500    12.8400 ca         1 OQI      -0.060000
      8 C24         -9.2580   -16.7800    10.3750 ca         1 OQI      -0.056000
      9 C13        -10.4310   -20.6520    12.8970 cc         1 OQI       0.264900
     10 C16        -12.2840   -19.4720    12.7120 cd         1 OQI      -0.115000
     11 C27         -9.7760   -15.0970    12.4530 ca         1 OQI      -0.111300
     12 C39         -4.8900   -16.1670    12.1390 cc         1 OQI       0.399400
     13 C9         -12.3670   -21.3200    14.4860 ca         1 OQI       0.006000
     14 C26         -8.5980   -14.9450    11.7520 cp         1 OQI      -0.014000
     15 C12        -11.7390   -20.5300    13.4270 cc         1 OQI      -0.166000
     16 C30         -7.6380   -13.8900    12.1580 cp         1 OQI      -0.052000
     17 C37         -6.3420   -14.1790    12.6000 ca         1 OQI       0.040800
     18 C6         -13.5660   -22.8460    16.5430 ca         1 OQI      -0.023000
     19 C31         -7.9870   -12.5460    12.0850 ca         1 OQI       0.200000
     20 C33         -7.0980   -11.5300    12.4160 ca         1 OQI       0.079000
     21 C23        -10.4280   -16.9230    11.0980 ca         1 OQI      -0.171300
     22 C3         -13.9530   -24.7350    18.1710 c          1 OQI       0.641100
     23 C21        -13.1950   -19.7120     7.8740 cx         1 OQI      -0.129900
     24 C22        -13.9680   -19.0850     9.0070 cx         1 OQI      -0.129900
     25 C20        -12.5600   -19.5650     9.2270 cx         1 OQI      -0.131700
     26 C19        -11.4530   -18.5610     9.4330 c3         1 OQI      -0.053400
     27 C17        -11.4690   -17.9810    10.8490 c3         1 OQI       0.168600
     28 N14        -10.1990   -19.7550    11.9440 nd         1 OQI      -0.535800
     29 N40         -4.8870   -17.4180    12.5360 nd         1 OQI      -0.375000
     30 N41         -5.9500   -17.5440    13.3730 nd         1 OQI      -0.028000
     31 N42         -6.5800   -16.4310    13.4920 nc         1 OQI      -0.174800
     32 N15        -11.3390   -19.0410    11.8510 na         1 OQI       0.119800
     33 N38         -5.9280   -15.5370    12.7160 na         1 OQI      -0.020500
     34 N28        -10.6750   -16.0660    12.1420 na         1 OQI       0.451300
     35 N5         -14.2290   -23.5410    17.5760 ns         1 OQI      -0.145000
     36 O29        -11.7550   -16.1730    12.8430 o          1 OQI      -0.520000
     37 O4         -14.6530   -25.2090    19.0510 o          1 OQI      -0.538000
     38 O2         -12.8540   -25.3280    17.6860 os         1 OQI      -0.447100
     39 F32         -9.2140   -12.2210    11.6520 f          1 OQI      -0.145000
     40 CL34        -7.6030    -9.8780    12.2890 cl         1 OQI      -0.145000
     41 H48        -10.5370   -22.2140    15.1810 ha         1 OQI       0.113500
     42 H49        -14.3760   -20.6370    14.1020 ha         1 OQI       0.113500
     43 H61         -7.4200   -15.7000    10.1120 ha         1 OQI       0.131000
     44 H47        -11.5650   -23.5220    16.9570 ha         1 OQI       0.121000
     45 H50        -15.4060   -21.9570    15.8840 ha         1 OQI       0.121000
     46 H63         -5.1260   -11.0620    13.1020 ha         1 OQI       0.147000
     47 H60         -9.0710   -17.4580     9.5560 ha         1 OQI       0.145000
     48 H51         -9.6610   -21.3580    13.1660 h4         1 OQI       0.038100
     49 H52        -13.2480   -18.9950    12.7620 h4         1 OQI       0.162000
     50 H62        -10.0570   -14.4820    13.2950 h4         1 OQI       0.178000
     51 H65         -4.2000   -15.6940    11.4600 h5         1 OQI       0.077100
     52 H56        -12.8450   -19.0580     7.0840 hc         1 OQI       0.072700
     53 H57        -13.4790   -20.7040     7.5480 hc         1 OQI       0.072700
     54 H59        -14.1290   -18.0150     8.9730 hc         1 OQI       0.072700
     55 H58        -14.7780   -19.6500     9.4500 hc         1 OQI       0.072700
     56 H55        -12.4560   -20.4780     9.8020 hc         1 OQI       0.092700
     57 H45        -11.5990   -26.9060    17.7600 h1         1 OQI       0.051033
     58 H43        -12.3230   -26.4850    19.3380 h1         1 OQI       0.051033
     59 H44        -13.3020   -27.3220    18.1050 h1         1 OQI       0.051033
     60 H54        -10.4880   -19.0290     9.2290 hc         1 OQI       0.059700
     61 H53        -11.5690   -17.7320     8.7310 hc         1 OQI       0.059700
     62 H18        -12.4420   -17.5300    11.0350 h1         1 OQI       0.100700
     63 H46        -15.1210   -23.1630    17.8610 hn         1 OQI       0.169000
     64 H64         -4.4530   -13.4450    13.2900 ha         1 OQI       0.142000
     65 C1         -12.5060   -26.5970    18.2710 c3         1 OQI       0.167900
@<TRIPOS>BOND
     1     1     5 ar  
     2     1    13 ar  
     3     1    41 1   
     4     2     6 ar  
     5     2    13 ar  
     6     2    42 1   
     7     3     8 ar  
     8     3    14 ar  
     9     3    43 1   
    10     4     7 ar  
    11     4    17 ar  
    12     4    64 1   
    13     5    18 ar  
    14     5    44 1   
    15     6    18 ar  
    16     6    45 1   
    17     7    20 ar  
    18     7    46 1   
    19     8    21 ar  
    20     8    47 1   
    21     9    15 1   
    22     9    28 2   
    23     9    48 1   
    24    10    15 2   
    25    10    32 1   
    26    10    49 1   
    27    11    14 ar  
    28    11    34 2   
    29    11    50 1   
    30    12    29 2   
    31    12    33 1   
    32    12    51 1   
    33    13    15 1   
    34    14    16 1   
    35    16    17 ar  
    36    16    19 ar  
    37    17    33 1   
    38    18    35 1   
    39    19    20 ar  
    40    19    39 1   
    41    20    40 1   
    42    21    27 1   
    43    21    34 1   
    44    22    35 1   
    45    22    37 2   
    46    22    38 1   
    47    23    24 1   
    48    23    25 1   
    49    23    52 1   
    50    23    53 1   
    51    24    25 1   
    52    24    54 1   
    53    24    55 1   
    54    25    26 1   
    55    25    56 1   
    56    26    27 1   
    57    26    60 1   
    58    26    61 1   
    59    27    32 1   
    60    27    62 1   
    61    28    32 1   
    62    29    30 1   
    63    30    31 2   
    64    31    33 1   
    65    34    36 1   
    66    35    63 1   
    67    38    65 1   
    68    57    65 1   
    69    58    65 1   
    70    59    65 1   
@<TRIPOS>SUBSTRUCTURE
     1 OQI         1 TEMP              0 ****  ****    0 ROOT
