@<TRIPOS>MOLECULE
OQI
   65    70     1     0     0
SMALL
No Charge or Current Charge


@<TRIPOS>ATOM
      1 C8         -11.4350   -22.5580    15.0470 ca         1 OQI      -0.087000
      2 C10        -13.2770   -20.9910    15.1930 ca         1 OQI      -0.087000
      3 C25         -8.2070   -16.0850    10.9420 ca         1 OQI      -0.111000
      4 C36         -5.5760   -12.9770    13.0370 ca         1 OQI      -0.113000
      5 C7         -11.9400   -23.2600    16.1550 ca         1 OQI      -0.135000
      6 C11        -13.7820   -21.6920    16.3020 ca         1 OQI      -0.135000
      7 C35         -5.7330   -11.7430    12.3850 ca         1 OQI      -0.060000
      8 C24         -9.1230   -17.1070    10.6840 ca         1 OQI      -0.056000
      9 C13        -10.3980   -20.9700    12.6210 cc         1 OQI       0.264900
     10 C16        -12.1210   -19.5910    12.8460 cd         1 OQI      -0.115000
     11 C27         -9.9380   -14.7820    12.1050 ca         1 OQI      -0.111300
     12 C39         -5.5000   -16.2010    13.1750 cc         1 OQI       0.399400
     13 C9         -12.0970   -21.4180    14.5470 ca         1 OQI       0.006000
     14 C26         -8.6020   -14.9280    11.6470 cp         1 OQI      -0.014000
     15 C12        -11.5460   -20.7050    13.3860 cc         1 OQI      -0.166000
     16 C30         -7.6100   -13.8420    11.9170 cp         1 OQI      -0.052000
     17 C37         -6.5070   -14.0020    12.8040 ca         1 OQI       0.040800
     18 C6         -13.1310   -22.8410    16.7840 ca         1 OQI      -0.023000
     19 C31         -7.7450   -12.5800    11.2810 ca         1 OQI       0.200000
     20 C33         -6.8160   -11.5440    11.5110 ca         1 OQI       0.079000
     21 C23        -10.4480   -16.9780    11.1380 ca         1 OQI      -0.171300
     22 C3         -13.6050   -24.8050    18.3700 c          1 OQI       0.641100
     23 C21        -13.3510   -19.4150     7.6740 cx         1 OQI      -0.129900
     24 C22        -14.1120   -18.8680     8.8610 cx         1 OQI      -0.129900
     25 C20        -12.7170   -19.4170     9.0440 cx         1 OQI      -0.131700
     26 C19        -11.5440   -18.4930     9.3710 c3         1 OQI      -0.053400
     27 C17        -11.4770   -18.0910    10.8690 c3         1 OQI       0.168600
     28 N14        -10.2010   -20.1140    11.6410 nd         1 OQI      -0.535800
     29 N40         -5.7310   -17.1640    14.0500 nd         1 OQI      -0.375000
     30 N41         -6.7940   -16.7430    14.8330 nd         1 OQI      -0.028000
     31 N42         -7.2230   -15.5550    14.4850 nc         1 OQI      -0.174800
     32 N15        -11.2850   -19.2460    11.7770 na         1 OQI       0.119800
     33 N38         -6.4360   -15.2440    13.4340 na         1 OQI      -0.020500
     34 N28        -10.8190   -15.8450    11.8830 na         1 OQI       0.451300
     35 N5         -13.6790   -23.4960    17.9210 ns         1 OQI      -0.145000
     36 O29        -11.9450   -15.7830    12.3980 o          1 OQI      -0.520000
     37 O4         -14.0910   -25.1730    19.4310 o          1 OQI      -0.538000
     38 O2         -13.0530   -25.6490    17.4410 os         1 OQI      -0.447100
     39 F32         -8.7760   -12.3680    10.4280 f          1 OQI      -0.145000
     40 Cl34        -6.9950    -9.9840    10.7070 cl         1 OQI      -0.145000
     41 H48        -10.5160   -22.9070    14.5820 ha         1 OQI       0.113500
     42 H49        -13.8150   -20.1140    14.8480 ha         1 OQI       0.113500
     43 H61         -7.1830   -16.1820    10.5880 ha         1 OQI       0.131000
     44 H47        -11.3840   -24.1160    16.5260 ha         1 OQI       0.121000
     45 H50        -14.6920   -21.3420    16.7840 ha         1 OQI       0.121000
     46 H63         -5.0210   -10.9390    12.5590 ha         1 OQI       0.147000
     47 H60         -8.8000   -17.9920    10.1400 ha         1 OQI       0.145000
     48 H51         -9.6880   -21.7760    12.7530 h4         1 OQI       0.038100
     49 H52        -13.0080   -19.0270    13.1050 h4         1 OQI       0.162000
     50 H62        -10.2940   -13.9160    12.6570 h4         1 OQI       0.178000
     51 H65         -4.7460   -16.1450    12.4010 h5         1 OQI       0.077100
     52 H56        -12.9830   -18.7040     6.9380 hc         1 OQI       0.072700
     53 H57        -13.6720   -20.3700     7.2630 hc         1 OQI       0.072700
     54 H59        -14.2520   -17.7900     8.9180 hc         1 OQI       0.072700
     55 H58        -14.9420   -19.4550     9.2470 hc         1 OQI       0.072700
     56 H55        -12.6350   -20.3850     9.5360 hc         1 OQI       0.092700
     57 H45        -12.5130   -27.6050    16.9370 h1         1 OQI       0.051033
     58 H43        -12.3750   -27.2150    18.6640 h1         1 OQI       0.051033
     59 H44        -13.9790   -27.4690    17.9300 h1         1 OQI       0.051033
     60 H54        -10.6100   -18.9810     9.0700 hc         1 OQI       0.059700
     61 H53        -11.6190   -17.5770     8.7720 hc         1 OQI       0.059700
     62 H18        -12.4750   -17.6980    11.0960 h1         1 OQI       0.100700
     63 H46        -14.1990   -22.8850    18.5360 hn         1 OQI       0.169000
     64 H64         -4.7460   -13.1310    13.7240 ha         1 OQI       0.142000
     65 C1         -12.9780   -27.0510    17.7610 c3         1 OQI       0.167900
@<TRIPOS>BOND
     1     1     5 ar  
     2     1    13 ar  
     3     1    41 1   
     4     2     6 ar  
     5     2    13 ar  
     6     2    42 1   
     7     3     8 ar  
     8     3    14 ar  
     9     3    43 1   
    10     4     7 ar  
    11     4    17 ar  
    12     4    64 1   
    13     5    18 ar  
    14     5    44 1   
    15     6    18 ar  
    16     6    45 1   
    17     7    20 ar  
    18     7    46 1   
    19     8    21 ar  
    20     8    47 1   
    21     9    15 1   
    22     9    28 2   
    23     9    48 1   
    24    10    15 2   
    25    10    32 1   
    26    10    49 1   
    27    11    14 ar  
    28    11    34 2   
    29    11    50 1   
    30    12    29 2   
    31    12    33 1   
    32    12    51 1   
    33    13    15 1   
    34    14    16 1   
    35    16    17 ar  
    36    16    19 ar  
    37    17    33 1   
    38    18    35 1   
    39    19    20 ar  
    40    19    39 1   
    41    20    40 1   
    42    21    27 1   
    43    21    34 1   
    44    22    35 1   
    45    22    37 2   
    46    22    38 1   
    47    23    24 1   
    48    23    25 1   
    49    23    52 1   
    50    23    53 1   
    51    24    25 1   
    52    24    54 1   
    53    24    55 1   
    54    25    26 1   
    55    25    56 1   
    56    26    27 1   
    57    26    60 1   
    58    26    61 1   
    59    27    32 1   
    60    27    62 1   
    61    28    32 1   
    62    29    30 1   
    63    30    31 2   
    64    31    33 1   
    65    34    36 1   
    66    35    63 1   
    67    38    65 1   
    68    57    65 1   
    69    58    65 1   
    70    59    65 1   
@<TRIPOS>SUBSTRUCTURE
     1 OQI         1 TEMP              0 ****  ****    0 ROOT
