@<TRIPOS>MOLECULE
OQJ
   48    51     1     0     0
SMALL
No Charge or Current Charge


@<TRIPOS>ATOM
      1 C4           8.2480    -1.4980     0.2560 ca         1 OQJ      -0.087000
      2 C14         -6.2440     0.6990    -0.0120 c          1 OQJ       0.619700
      3 C5           7.0790    -2.2720     0.2430 ca         1 OQJ       0.108000
      4 C6           5.8190    -1.6540     0.2150 ca         1 OQJ      -0.085000
      5 C11         -1.1530     2.5690     0.0520 ca         1 OQJ      -0.031000
      6 C7           5.7160    -0.2440     0.1990 ca         1 OQJ      -0.033000
      7 C9           0.8440     1.1410     0.1010 ca         1 OQJ      -0.005000
      8 C10          0.2490     2.4230     0.0770 ca         1 OQJ      -0.163000
      9 C12         -1.9650     1.4260     0.0510 ca         1 OQJ       0.094400
     10 C13         -3.7970     0.1970     0.0340 cc         1 OQJ       0.476800
     11 N1           4.4690     0.4480     0.1700 ns         1 OQJ      -0.158000
     12 N2           2.2650     1.0790     0.1260 ns         1 OQJ      -0.161000
     13 C3           8.1610    -0.0960     0.2410 ca         1 OQJ      -0.168000
     14 N3          -3.3540     1.4600     0.0270 nd         1 OQJ      -0.544100
     15 C1           7.9070     2.7950     0.2070 c3         1 OQJ       0.152900
     16 C2           6.8960     0.5350     0.2120 ca         1 OQJ       0.095100
     17 Cl1          7.1930    -4.0280     0.2630 cl         1 OQJ      -0.198000
     18 O2           2.8160    -1.1660     0.1590 o          1 OQJ      -0.604100
     19 N4          -5.1390    -0.1270     0.0150 ns         1 OQJ      -0.412400
     20 O3          -6.1680     1.9200    -0.0250 o          1 OQJ      -0.517100
     21 C15         -7.5950     0.0000    -0.0260 ca         1 OQJ      -0.157600
     22 C16         -8.7760     0.7810    -0.0550 ca         1 OQJ      -0.070000
     23 C17        -10.0430     0.1740    -0.0680 ca         1 OQJ      -0.118000
     24 C18        -10.1550    -1.2240    -0.0530 ca         1 OQJ      -0.084000
     25 C19         -8.9970    -2.0140    -0.0250 ca         1 OQJ      -0.118000
     26 C20         -7.7260    -1.4130    -0.0110 ca         1 OQJ      -0.070000
     27 S1          -2.5800    -1.1040     0.0680 ss         1 OQJ      -0.026200
     28 C21         -1.3840     0.1770     0.0740 ca         1 OQJ      -0.153000
     29 C22          0.0080    -0.0010     0.0990 ca         1 OQJ      -0.092000
     30 H1           9.2200    -1.9850     0.2780 ha         1 OQJ       0.131000
     31 H2           4.9410    -2.2910     0.2060 ha         1 OQJ       0.158000
     32 H3          -1.6030     3.5590     0.0340 ha         1 OQJ       0.137000
     33 H4           0.8750     3.3130     0.0780 ha         1 OQJ       0.113000
     34 H6           4.5740     1.4540     0.1610 hn         1 OQJ       0.162000
     35 H7           2.7100     1.9870     0.1240 hn         1 OQJ       0.150000
     36 H8           9.0820     0.4800     0.2510 ha         1 OQJ       0.122000
     37 H10          8.5100     2.6440     1.1120 h1         1 OQJ       0.044367
     38 H11          8.5410     2.6260    -0.6720 h1         1 OQJ       0.044367
     39 H12          7.5770     3.8410     0.1910 h1         1 OQJ       0.044367
     40 H13         -5.3550    -1.1100     0.0220 hn         1 OQJ       0.333500
     41 H14         -8.7170     1.8680    -0.0670 ha         1 OQJ       0.124500
     42 H15        -10.9390     0.7900    -0.0900 ha         1 OQJ       0.119500
     43 H16        -11.1370    -1.6930    -0.0640 ha         1 OQJ       0.117000
     44 H17         -9.0830    -3.0990    -0.0130 ha         1 OQJ       0.119500
     45 H18         -6.8580    -2.0670     0.0110 ha         1 OQJ       0.124500
     46 H19          0.4090    -1.0100     0.1170 ha         1 OQJ       0.159000
     47 O1           6.7690     1.9130     0.1960 os         1 OQJ      -0.361100
     48 C8           3.1520     0.0120     0.1520 c          1 OQJ       0.667100
@<TRIPOS>BOND
     1     1     3 ar  
     2     1    13 ar  
     3     1    30 1   
     4     2    19 1   
     5     2    20 2   
     6     2    21 1   
     7     3     4 ar  
     8     3    17 1   
     9     4     6 ar  
    10     4    31 1   
    11     5     8 ar  
    12     5     9 ar  
    13     5    32 1   
    14     6    11 1   
    15     6    16 ar  
    16     7     8 ar  
    17     7    12 1   
    18     7    29 ar  
    19     8    33 1   
    20     9    14 1   
    21     9    28 ar  
    22    10    14 2   
    23    10    19 1   
    24    10    27 1   
    25    11    34 1   
    26    11    48 1   
    27    12    35 1   
    28    12    48 1   
    29    13    16 ar  
    30    13    36 1   
    31    15    37 1   
    32    15    38 1   
    33    15    39 1   
    34    15    47 1   
    35    16    47 1   
    36    18    48 2   
    37    19    40 1   
    38    21    22 ar  
    39    21    26 ar  
    40    22    23 ar  
    41    22    41 1   
    42    23    24 ar  
    43    23    42 1   
    44    24    25 ar  
    45    24    43 1   
    46    25    26 ar  
    47    25    44 1   
    48    26    45 1   
    49    27    28 1   
    50    28    29 ar  
    51    29    46 1   
@<TRIPOS>SUBSTRUCTURE
     1 OQJ         1 TEMP              0 ****  ****    0 ROOT
