@<TRIPOS>MOLECULE
OQJ
   48    51     1     0     0
SMALL
abcg2


@<TRIPOS>ATOM
      1 C4           7.8960    -1.6190     0.0750 ca         1 OQJ      -0.087000
      2 C14         -6.1190     0.5730    -0.2690 c          1 OQJ       0.619700
      3 C5           6.7840    -2.1080    -0.5800 ca         1 OQJ       0.108000
      4 C6           5.6260    -1.3540    -0.7080 ca         1 OQJ      -0.085000
      5 C11         -1.1500     2.6110    -0.7520 ca         1 OQJ      -0.031000
      6 C7           5.5680    -0.0850    -0.1490 ca         1 OQJ      -0.033000
      7 C9           0.8760     1.3350    -0.3170 ca         1 OQJ      -0.005000
      8 C10          0.2240     2.5180    -0.7100 ca         1 OQJ      -0.163000
      9 C12         -1.9190     1.5040    -0.4030 ca         1 OQJ       0.094400
     10 C13         -3.6930     0.2870    -0.0280 cc         1 OQJ       0.476800
     11 N1           4.4510     0.7450    -0.2490 ns         1 OQJ      -0.158000
     12 N2           2.2700     1.3820    -0.2890 ns         1 OQJ      -0.161000
     13 C3           7.8490    -0.3400     0.6160 ca         1 OQJ      -0.168000
     14 N3          -3.2930     1.4460    -0.3990 nd         1 OQJ      -0.544100
     15 C1           7.6770     2.2790     1.6430 c3         1 OQJ       0.152900
     16 C2           6.7000     0.4290     0.5160 ca         1 OQJ       0.095100
     17 CL1          6.8260    -3.6980    -1.2770 cl         1 OQJ      -0.198000
     18 O2           2.8040    -0.8360    -0.2050 o          1 OQJ      -0.604100
     19 N4          -4.9940    -0.1300     0.1020 ns         1 OQJ      -0.412400
     20 O3          -6.0740     1.6470    -0.8250 o          1 OQJ      -0.517100
     21 C15         -7.4060    -0.1070     0.0500 ca         1 OQJ      -0.157600
     22 C16         -8.5190     0.2160    -0.7260 ca         1 OQJ      -0.070000
     23 C17         -9.7440    -0.3780    -0.4700 ca         1 OQJ      -0.118000
     24 C18         -9.8740    -1.2850     0.5750 ca         1 OQJ      -0.084000
     25 C19         -8.7750    -1.5950     1.3630 ca         1 OQJ      -0.118000
     26 C20         -7.5440    -1.0120     1.1010 ca         1 OQJ      -0.070000
     27 S1          -2.4360    -0.8820     0.3650 ss         1 OQJ      -0.026200
     28 C21         -1.2570     0.3330    -0.0140 ca         1 OQJ      -0.153000
     29 C22          0.1240     0.2200     0.0440 ca         1 OQJ      -0.092000
     30 H1           8.7950    -2.2120     0.1690 ha         1 OQJ       0.131000
     31 H2           4.7810    -1.7530    -1.2450 ha         1 OQJ       0.158000
     32 H3          -1.6280     3.5320    -1.0580 ha         1 OQJ       0.137000
     33 H4           0.8170     3.3800    -0.9900 ha         1 OQJ       0.113000
     34 H6           4.6330     1.7280    -0.1150 hn         1 OQJ       0.162000
     35 H7           2.6590     2.3030    -0.4220 hn         1 OQJ       0.150000
     36 H8           8.7250     0.0360     1.1260 ha         1 OQJ       0.122000
     37 H10          7.9820     1.7300     2.5370 h1         1 OQJ       0.044367
     38 H11          8.5320     2.3620     0.9680 h1         1 OQJ       0.044367
     39 H12          7.3590     3.2760     1.9340 h1         1 OQJ       0.044367
     40 H13         -5.1300    -1.0710     0.4360 hn         1 OQJ       0.333500
     41 H14         -8.4240     0.9250    -1.5370 ha         1 OQJ       0.124500
     42 H15        -10.5990    -0.1330    -1.0860 ha         1 OQJ       0.119500
     43 H16        -10.8330    -1.7460     0.7760 ha         1 OQJ       0.117000
     44 H17         -8.8730    -2.2890     2.1870 ha         1 OQJ       0.119500
     45 H18         -6.7090    -1.2560     1.7470 ha         1 OQJ       0.124500
     46 H19          0.5880    -0.6990     0.3650 ha         1 OQJ       0.159000
     47 O1           6.5660     1.6730     1.0100 os         1 OQJ      -0.361100
     48 C8           3.1440     0.3310    -0.2430 c          1 OQJ       0.667100
@<TRIPOS>BOND
     1     1     3 ar  
     2     1    13 ar  
     3     1    30 1   
     4     2    19 1   
     5     2    20 2   
     6     2    21 1   
     7     3     4 ar  
     8     3    17 1   
     9     4     6 ar  
    10     4    31 1   
    11     5     8 ar  
    12     5     9 ar  
    13     5    32 1   
    14     6    11 1   
    15     6    16 ar  
    16     7     8 ar  
    17     7    12 1   
    18     7    29 ar  
    19     8    33 1   
    20     9    14 1   
    21     9    28 ar  
    22    10    14 2   
    23    10    19 1   
    24    10    27 1   
    25    11    34 1   
    26    11    48 1   
    27    12    35 1   
    28    12    48 1   
    29    13    16 ar  
    30    13    36 1   
    31    15    37 1   
    32    15    38 1   
    33    15    39 1   
    34    15    47 1   
    35    16    47 1   
    36    18    48 2   
    37    19    40 1   
    38    21    22 ar  
    39    21    26 ar  
    40    22    23 ar  
    41    22    41 1   
    42    23    24 ar  
    43    23    42 1   
    44    24    25 ar  
    45    24    43 1   
    46    25    26 ar  
    47    25    44 1   
    48    26    45 1   
    49    27    28 1   
    50    28    29 ar  
    51    29    46 1   
@<TRIPOS>SUBSTRUCTURE
     1 OQJ         1 TEMP              0 ****  ****    0 ROOT
