@<TRIPOS>MOLECULE
OQL
   40    43     1     0     0
SMALL
abcg2


@<TRIPOS>ATOM
      1 N1           7.8020    -0.7780    20.8160 ns         1 OQL      -0.172000
      2 C4           9.5280    -0.9620    25.2720 c6         1 OQL       0.209800
      3 C5           8.6490    -0.4220    24.1570 c6         1 OQL      -0.079400
      4 C6           9.2300    -0.8060    22.7870 c6         1 OQL      -0.078400
      5 C7           8.5010    -0.0200    21.7020 c          1 OQL       0.597100
      6 C8           7.0660    -0.2370    19.7290 ca         1 OQL      -0.076000
      7 C10          5.7550     0.7020    17.5240 ca         1 OQL       0.357900
      8 C13          3.5710     2.0920    20.1940 ca         1 OQL      -0.106000
      9 C15          5.3600     0.8230    21.2270 ca         1 OQL      -0.085000
     10 C17         10.7290    -0.5650    22.7260 ca         1 OQL      -0.131300
     11 O            8.5250     1.2030    21.6520 o          1 OQL      -0.560100
     12 N           10.8600    -0.3890    25.1460 nu         1 OQL      -0.943200
     13 C3          11.4750    -0.3970    23.9090 ca         1 OQL       0.320000
     14 C2          12.8620    -0.1990    23.8140 ca         1 OQL      -0.174000
     15 C1          13.5040    -0.1700    22.5880 ca         1 OQL      -0.054000
     16 C18         11.3850    -0.5370    21.4980 ca         1 OQL      -0.054000
     17 C           12.7550    -0.3420    21.4310 ca         1 OQL       0.080000
     18 CL          13.5530    -0.3120    19.8660 cl         1 OQL      -0.215000
     19 C16          5.8980     0.5390    19.9510 ca         1 OQL      -0.001000
     20 C14          4.2220     1.5820    21.3390 ca         1 OQL      -0.093000
     21 C12          4.0640     1.8200    18.9440 ca         1 OQL      -0.085000
     22 C11          5.2310     1.0340    18.7960 ca         1 OQL      -0.090000
     23 N2           6.8240    -0.0400    17.3430 nb         1 OQL      -0.652000
     24 C9           7.4720    -0.4950    18.4440 ca         1 OQL       0.307900
     25 H1           7.9370    -1.7780    20.8340 hn         1 OQL       0.156000
     26 H3           9.5570    -2.0600    25.2240 h1         1 OQL       0.039700
     27 H4           8.5980     0.6650    24.2350 hc         1 OQL       0.067200
     28 H5           7.6360    -0.8160    24.2500 hc         1 OQL       0.067200
     29 H6           9.0470    -1.8730    22.6290 hc         1 OQL       0.053700
     30 H7           5.2490     1.0730    16.6370 h4         1 OQL       0.022100
     31 H8           2.6780     2.6920    20.3090 ha         1 OQL       0.117000
     32 H9           5.8470     0.4380    22.1100 ha         1 OQL       0.121000
     33 H10         11.4770    -0.5500    25.9270 hn         1 OQL       0.469000
     34 H11         13.4370    -0.0680    24.7230 ha         1 OQL       0.117000
     35 H12         14.5730    -0.0180    22.5330 ha         1 OQL       0.129000
     36 H13         10.8210    -0.6720    20.5830 ha         1 OQL       0.124000
     37 H14          3.8130     1.7930    22.3190 ha         1 OQL       0.115000
     38 H15          3.5700     2.1950    18.0560 ha         1 OQL       0.118000
     39 H16          8.3590    -1.0930    18.2720 h4         1 OQL       0.021100
     40 H2           9.1250    -0.6830    26.2450 h1         1 OQL       0.039700
@<TRIPOS>BOND
     1     1     5 1   
     2     1     6 1   
     3     1    25 1   
     4     2     3 1   
     5     2    12 1   
     6     2    26 1   
     7     2    40 1   
     8     3     4 1   
     9     3    27 1   
    10     3    28 1   
    11     4     5 1   
    12     4    10 1   
    13     4    29 1   
    14     5    11 2   
    15     6    19 ar  
    16     6    24 ar  
    17     7    22 ar  
    18     7    23 ar  
    19     7    30 1   
    20     8    20 ar  
    21     8    21 ar  
    22     8    31 1   
    23     9    19 ar  
    24     9    20 ar  
    25     9    32 1   
    26    10    13 ar  
    27    10    16 ar  
    28    12    13 1   
    29    12    33 1   
    30    13    14 ar  
    31    14    15 ar  
    32    14    34 1   
    33    15    17 ar  
    34    15    35 1   
    35    16    17 ar  
    36    16    36 1   
    37    17    18 1   
    38    19    22 ar  
    39    20    37 1   
    40    21    22 ar  
    41    21    38 1   
    42    23    24 ar  
    43    24    39 1   
@<TRIPOS>SUBSTRUCTURE
     1 OQL         1 TEMP              0 ****  ****    0 ROOT
