@<TRIPOS>MOLECULE
OQL
   40    43     1     0     0
SMALL
No Charge or Current Charge


@<TRIPOS>ATOM
      1 N1           7.7000    -0.8530    20.7690 ns         1 OQL      -0.172000
      2 C4           9.5120    -1.4920    25.0700 c6         1 OQL       0.209800
      3 C5           8.6290    -0.9530    23.9260 c6         1 OQL      -0.079400
      4 C6           9.3990    -0.9280    22.5710 c6         1 OQL      -0.078400
      5 C7           8.6000    -0.1150    21.5220 c          1 OQL       0.597100
      6 C8           6.8090    -0.4270    19.7470 ca         1 OQL      -0.076000
      7 C10          5.2090     0.2640    17.6030 ca         1 OQL       0.357900
      8 C13          3.8910     2.6270    20.1640 ca         1 OQL      -0.106000
      9 C15          5.6420     1.2590    21.1620 ca         1 OQL      -0.085000
     10 C17         10.8730    -0.4740    22.7110 ca         1 OQL      -0.131300
     11 O            8.8030     1.0790    21.3260 o          1 OQL      -0.560100
     12 N           10.7320    -0.6760    25.1320 nu         1 OQL      -0.943200
     13 C3          11.4690    -0.3660    23.9900 ca         1 OQL       0.320000
     14 C2          12.8080     0.0360    24.1170 ca         1 OQL      -0.174000
     15 C1          13.5720     0.3210    22.9710 ca         1 OQL      -0.054000
     16 C18         11.6550    -0.2070    21.5650 ca         1 OQL      -0.054000
     17 C           12.9950     0.1940    21.6980 ca         1 OQL       0.080000
     18 Cl          13.9530     0.5340    20.2630 cl         1 OQL      -0.215000
     19 C16          5.8470     0.6000    19.9280 ca         1 OQL      -0.001000
     20 C14          4.6720     2.2700    21.2750 ca         1 OQL      -0.093000
     21 C12          4.0710     1.9660    18.9390 ca         1 OQL      -0.085000
     22 C11          5.0400     0.9500    18.8220 ca         1 OQL      -0.090000
     23 N2           6.1050    -0.7350    17.4340 nb         1 OQL      -0.652000
     24 C9           6.8780    -1.0670    18.4920 ca         1 OQL       0.307900
     25 H1           7.6820    -1.8460    20.9670 hn         1 OQL       0.156000
     26 H3           9.7650    -2.5440    24.8660 h1         1 OQL       0.039700
     27 H4           8.3040     0.0640    24.1850 hc         1 OQL       0.067200
     28 H5           7.7160    -1.5580    23.8390 hc         1 OQL       0.067200
     29 H6           9.3840    -1.9740    22.2350 hc         1 OQL       0.053700
     30 H7           4.5990     0.5120    16.7350 h4         1 OQL       0.022100
     31 H8           3.1410     3.4100    20.2550 ha         1 OQL       0.117000
     32 H9           6.2160     0.9930    22.0440 ha         1 OQL       0.121000
     33 H10         11.2370    -0.6250    26.0190 hn         1 OQL       0.469000
     34 H11         13.2610     0.1220    25.1010 ha         1 OQL       0.117000
     35 H12         14.6100     0.6300    23.0690 ha         1 OQL       0.129000
     36 H13         11.2280    -0.3070    20.5700 ha         1 OQL       0.124000
     37 H14          4.5230     2.7740    22.2270 ha         1 OQL       0.115000
     38 H15          3.4540     2.2380    18.0840 ha         1 OQL       0.118000
     39 H16          7.5970    -1.8690    18.3220 h4         1 OQL       0.021100
     40 H2           8.9640    -1.4570    26.0240 h1         1 OQL       0.039700
@<TRIPOS>BOND
     1     1     5 1   
     2     1     6 1   
     3     1    25 1   
     4     2     3 1   
     5     2    12 1   
     6     2    26 1   
     7     2    40 1   
     8     3     4 1   
     9     3    27 1   
    10     3    28 1   
    11     4     5 1   
    12     4    10 1   
    13     4    29 1   
    14     5    11 2   
    15     6    19 ar  
    16     6    24 ar  
    17     7    22 ar  
    18     7    23 ar  
    19     7    30 1   
    20     8    20 ar  
    21     8    21 ar  
    22     8    31 1   
    23     9    19 ar  
    24     9    20 ar  
    25     9    32 1   
    26    10    13 ar  
    27    10    16 ar  
    28    12    13 1   
    29    12    33 1   
    30    13    14 ar  
    31    14    15 ar  
    32    14    34 1   
    33    15    17 ar  
    34    15    35 1   
    35    16    17 ar  
    36    16    36 1   
    37    17    18 1   
    38    19    22 ar  
    39    20    37 1   
    40    21    22 ar  
    41    21    38 1   
    42    23    24 ar  
    43    24    39 1   
@<TRIPOS>SUBSTRUCTURE
     1 OQL         1 TEMP              0 ****  ****    0 ROOT
