@<TRIPOS>MOLECULE
OQM
   48    51     1     0     0
SMALL
bcc


@<TRIPOS>ATOM
      1 C4          -4.5400    -0.1280     0.0770 cc         1 OQM       0.600900
      2 C14          1.7900    -1.1760    -0.5400 c          1 OQM       0.670100
      3 C5          -5.8250     0.5630     0.0000 ca         1 OQM      -0.230200
      4 C6          -6.7990     0.3780     0.9770 ca         1 OQM      -0.049000
      5 C7          -8.0010     1.0520     0.8560 ca         1 OQM      -0.258300
      6 C8          -8.1870     1.8890    -0.2340 ca         1 OQM       0.414200
      7 C9          -6.1160     1.4290    -1.0540 ca         1 OQM       0.435200
      8 C10         -1.4510    -1.0240    -1.0220 cc         1 OQM       0.095400
      9 C12         -0.6050    -1.8760    -0.3570 cd         1 OQM      -0.260600
     10 C13          0.7430    -2.2150    -0.9130 c3         1 OQM      -0.100100
     11 N1          -2.1750    -2.1460     1.4520 nd         1 OQM      -0.641000
     12 N2          -4.2060    -0.9270     1.1050 nc         1 OQM      -0.379300
     13 C3          -2.9930    -1.3410     0.7840 cd         1 OQM       0.421500
     14 N3          -7.2640     2.0770    -1.1720 nb         1 OQM      -0.674000
     15 C2          -1.0100    -2.4050     0.9060 cd         1 OQM       0.489600
     16 N4          -3.6250    -0.0060    -0.8710 nd         1 OQM      -0.596100
     17 N5          -2.6400    -0.7840    -0.4160 na         1 OQM       0.037200
     18 O1           1.4940    -0.0150    -0.3390 o          1 OQM      -0.561100
     19 N6           3.0520    -1.6690    -0.4950 ns         1 OQM      -0.473100
     20 C15          4.2560    -0.9970    -0.2790 ca         1 OQM       0.066600
     21 C16          5.4190    -1.7740    -0.2920 ca         1 OQM      -0.159000
     22 C17          6.6550    -1.1930    -0.0940 ca         1 OQM      -0.105000
     23 C18          6.7690     0.1750     0.1250 ca         1 OQM      -0.103000
     24 C19          5.6150     0.9410     0.1380 ca         1 OQM      -0.167300
     25 C20          5.6720     2.4190     0.3770 c3         1 OQM       0.719200
     26 F1           6.9210     2.8790     0.4800 f          1 OQM      -0.232633
     27 F2           5.0840     3.1030    -0.6160 f          1 OQM      -0.232633
     28 F3           5.0330     2.7630     1.5050 f          1 OQM      -0.232633
     29 C21          4.3600     0.3730    -0.0590 ca         1 OQM      -0.107000
     30 H1          -6.6160    -0.2850     1.8120 ha         1 OQM       0.161000
     31 H2          -2.0160    -0.5480    -3.0180 hc         1 OQM       0.072700
     32 H3          -1.1970     0.7470    -2.1610 hc         1 OQM       0.072700
     33 H4          -0.2680    -0.6220    -2.7620 hc         1 OQM       0.072700
     34 H5          -8.7840     0.9320     1.5920 ha         1 OQM       0.144000
     35 H6          -9.1180     2.4310    -0.3540 h4         1 OQM       0.019100
     36 H7          -5.3810     1.6010    -1.8320 h4         1 OQM       0.033100
     37 H8           0.7150    -2.2590    -2.0050 hc         1 OQM       0.070700
     38 H9           1.0540    -3.2120    -0.6030 hc         1 OQM       0.070700
     39 H10          0.8630    -2.8000     1.8840 hc         1 OQM       0.061700
     40 H11         -0.5440    -3.5630     2.6300 hc         1 OQM       0.061700
     41 H12          0.1360    -4.2100     1.1340 hc         1 OQM       0.061700
     42 H13          3.1470    -2.6600    -0.6640 hn         1 OQM       0.318500
     43 H14          5.3490    -2.8420    -0.4600 ha         1 OQM       0.132000
     44 H15          7.5420    -1.8110    -0.1100 ha         1 OQM       0.141000
     45 H16          7.7440     0.6130     0.2800 ha         1 OQM       0.154000
     46 H17          3.4750     0.9890    -0.0420 ha         1 OQM       0.181000
     47 C11         -1.2120    -0.3330    -2.3130 c3         1 OQM      -0.058800
     48 C1          -0.0890    -3.2930     1.6810 c3         1 OQM      -0.156400
@<TRIPOS>BOND
     1     1     3 1   
     2     1    12 1   
     3     1    16 2   
     4     2    10 1   
     5     2    18 2   
     6     2    19 1   
     7     3     4 ar  
     8     3     7 ar  
     9     4     5 ar  
    10     4    30 1   
    11     5     6 ar  
    12     5    34 1   
    13     6    14 ar  
    14     6    35 1   
    15     7    14 ar  
    16     7    36 1   
    17     8     9 2   
    18     8    17 1   
    19     8    47 1   
    20     9    10 1   
    21     9    15 1   
    22    10    37 1   
    23    10    38 1   
    24    11    13 1   
    25    11    15 2   
    26    12    13 2   
    27    13    17 1   
    28    15    48 1   
    29    16    17 1   
    30    19    20 1   
    31    19    42 1   
    32    20    21 ar  
    33    20    29 ar  
    34    21    22 ar  
    35    21    43 1   
    36    22    23 ar  
    37    22    44 1   
    38    23    24 ar  
    39    23    45 1   
    40    24    25 1   
    41    24    29 ar  
    42    25    26 1   
    43    25    27 1   
    44    25    28 1   
    45    29    46 1   
    46    31    47 1   
    47    32    47 1   
    48    33    47 1   
    49    39    48 1   
    50    40    48 1   
    51    41    48 1   
@<TRIPOS>SUBSTRUCTURE
     1 OQM         1 TEMP              0 ****  ****    0 ROOT
