@<TRIPOS>MOLECULE
OQM
   48    51     1     0     0
SMALL
No Charge or Current Charge


@<TRIPOS>ATOM
      1 C4          -4.5660    -0.1100     0.0310 cc         1 OQM       0.600900
      2 C14          1.8800    -1.0100    -1.2010 c          1 OQM       0.603100
      3 C5          -5.9100     0.4550     0.1710 ca         1 OQM      -0.164900
      4 C6          -6.6550     0.3360     1.3660 ca         1 OQM      -0.031000
      5 C7          -7.9360     0.9070     1.4170 ca         1 OQM      -0.175000
      6 C8          -8.4380     1.5730     0.2890 ca         1 OQM       0.348900
      7 C9          -6.4980     1.1420    -0.9090 ca         1 OQM       0.369900
      8 C10         -1.5670    -0.9000    -1.4890 cc         1 OQM       0.044700
      9 C12         -0.5880    -1.6380    -0.8020 cd         1 OQM      -0.195300
     10 C13          0.7300    -1.9880    -1.5020 c3         1 OQM      -0.100100
     11 N1          -1.9530    -1.8200     1.3370 nd         1 OQM      -0.641000
     12 N2          -3.9940    -0.7750     1.0710 nc         1 OQM      -0.379300
     13 C3          -2.8390    -1.1150     0.5710 cd         1 OQM       0.421500
     14 N3          -7.7360     1.6930    -0.8590 nb         1 OQM      -0.674000
     15 C2          -0.8130    -2.0650     0.5850 cd         1 OQM       0.424300
     16 N4          -3.8570    -0.0060    -1.0840 nd         1 OQM      -0.596100
     17 N5          -2.7090    -0.6720    -0.7260 na         1 OQM       0.087900
     18 O1           1.8140     0.1700    -1.5230 o          1 OQM      -0.561100
     19 N6           2.9730    -1.5840    -0.5610 ns         1 OQM      -0.147000
     20 C15          4.2010    -1.0430    -0.0880 ca         1 OQM      -0.026000
     21 C16          5.1450    -1.9450     0.4340 ca         1 OQM      -0.141000
     22 C17          6.3750    -1.4850     0.9280 ca         1 OQM      -0.087000
     23 C18          6.6760    -0.1140     0.9050 ca         1 OQM      -0.085000
     24 C19          5.7460     0.8100     0.3830 ca         1 OQM      -0.167300
     25 C20          6.0530     2.3140     0.3640 c3         1 OQM       0.355300
     26 F1           7.3760     2.5800     0.4530 f          1 OQM      -0.111333
     27 F2           5.6180     2.9050    -0.7730 f          1 OQM      -0.111333
     28 F3           5.4520     2.9510     1.3940 f          1 OQM      -0.111333
     29 C21          4.5070     0.3370    -0.1040 ca         1 OQM      -0.089000
     30 H1          -6.2590    -0.1820     2.2380 ha         1 OQM       0.143000
     31 H2          -1.5230    -1.2080    -3.6270 hc         1 OQM       0.072700
     32 H3          -2.2700     0.3220    -3.1540 hc         1 OQM       0.072700
     33 H4          -0.5210     0.1470    -3.0700 hc         1 OQM       0.072700
     34 H5          -8.5390     0.8370     2.3180 ha         1 OQM       0.126000
     35 H6          -9.4290     2.0230     0.3040 h4         1 OQM       0.019100
     36 H7          -5.9730     1.2660    -1.8560 h4         1 OQM       0.033100
     37 H8           0.5970    -1.9970    -2.5890 hc         1 OQM       0.070700
     38 H9           1.0410    -3.0060    -1.2430 hc         1 OQM       0.070700
     39 H10          1.1590    -2.2650     1.4440 hc         1 OQM       0.061700
     40 H11         -0.0970    -3.0850     2.3650 hc         1 OQM       0.061700
     41 H12          0.4630    -3.7910     0.8520 hc         1 OQM       0.061700
     42 H13          2.8760    -2.5770    -0.3910 hn         1 OQM       0.152000
     43 H14          4.9260    -3.0110     0.4590 ha         1 OQM       0.114000
     44 H15          7.0970    -2.1920     1.3320 ha         1 OQM       0.123000
     45 H16          7.6330     0.2220     1.3000 ha         1 OQM       0.136000
     46 H17          3.7910     1.0590    -0.4840 ha         1 OQM       0.163000
     47 C11         -1.4670    -0.3820    -2.9090 c3         1 OQM      -0.058800
     48 C1           0.2330    -2.8410     1.3480 c3         1 OQM      -0.156400
@<TRIPOS>BOND
     1     1     3 1   
     2     1    12 1   
     3     1    16 2   
     4     2    10 1   
     5     2    18 2   
     6     2    19 1   
     7     3     4 ar  
     8     3     7 ar  
     9     4     5 ar  
    10     4    30 1   
    11     5     6 ar  
    12     5    34 1   
    13     6    14 ar  
    14     6    35 1   
    15     7    14 ar  
    16     7    36 1   
    17     8     9 2   
    18     8    17 1   
    19     8    47 1   
    20     9    10 1   
    21     9    15 1   
    22    10    37 1   
    23    10    38 1   
    24    11    13 1   
    25    11    15 2   
    26    12    13 2   
    27    13    17 1   
    28    15    48 1   
    29    16    17 1   
    30    19    20 1   
    31    19    42 1   
    32    20    21 ar  
    33    20    29 ar  
    34    21    22 ar  
    35    21    43 1   
    36    22    23 ar  
    37    22    44 1   
    38    23    24 ar  
    39    23    45 1   
    40    24    25 1   
    41    24    29 ar  
    42    25    26 1   
    43    25    27 1   
    44    25    28 1   
    45    29    46 1   
    46    31    47 1   
    47    32    47 1   
    48    33    47 1   
    49    39    48 1   
    50    40    48 1   
    51    41    48 1   
@<TRIPOS>SUBSTRUCTURE
     1 OQM         1 TEMP              0 ****  ****    0 ROOT
