@<TRIPOS>MOLECULE
OQN
   43    46     1     0     0
SMALL
abcg2


@<TRIPOS>ATOM
      1 C14          1.3480    -3.5670    -0.1040 cc         1 OQN       0.665700
      2 C13          2.2840    -1.6590     0.0440 ca         1 OQN       0.077400
      3 C12          0.9170    -1.4040    -0.2270 ca         1 OQN      -0.029200
      4 C16          3.1460    -0.5970     0.1930 ca         1 OQN       0.011000
      5 C17          2.6230     0.6970     0.0730 ca         1 OQN      -0.234600
      6 C11         -4.2760    -0.4230     0.5070 ca         1 OQN      -0.109000
      7 C8          -5.0820     2.1200    -0.2410 ca         1 OQN      -0.110000
      8 C6          -3.3260     0.5920     0.4220 ca         1 OQN      -0.075300
      9 C7          -3.7470     1.8660     0.0430 ca         1 OQN      -0.109000
     10 C2           1.2540     0.9360    -0.1950 ca         1 OQN       0.227400
     11 C5          -1.8730     0.3200     0.6850 c3         1 OQN      -0.031100
     12 C3           0.3670    -0.1470    -0.3620 ca         1 OQN      -0.100300
     13 N            2.8770     3.0580     0.1010 ns         1 OQN      -0.454400
     14 C            3.5060     1.8390     0.2300 c          1 OQN       0.592600
     15 O            4.7050     1.7860     0.4580 o          1 OQN      -0.542000
     16 C1           1.5400     3.2040    -0.1510 cc         1 OQN       0.707800
     17 C10         -5.6130    -0.1740     0.2250 ca         1 OQN      -0.110000
     18 C15         -0.2100    -5.4570    -0.2260 c3         1 OQN       0.216100
     19 C9          -6.0200     1.0990    -0.1500 ca         1 OQN      -0.113000
     20 N1           1.0960     4.4740    -0.2920 nv         1 OQN      -1.033200
     21 N2           0.7380     2.2030    -0.2960 nd         1 OQN      -0.711100
     22 N3           2.5160    -3.0140     0.1140 nd         1 OQN      -0.645100
     23 N4           1.1120    -4.8860    -0.1520 nu         1 OQN      -0.909400
     24 N5           0.3500    -2.6520    -0.3110 na         1 OQN      -0.360600
     25 H17          4.1970    -0.7480     0.3980 ha         1 OQN       0.149000
     26 H8          -5.3910     3.1160    -0.5300 ha         1 OQN       0.110000
     27 H7          -3.0200     2.6670    -0.0260 ha         1 OQN       0.109000
     28 H6          -1.4220     1.1690     1.2040 hc         1 OQN       0.051700
     29 H5          -1.7660    -0.5460     1.3430 hc         1 OQN       0.051700
     30 H            3.4580     3.8800     0.1960 hn         1 OQN       0.323500
     31 H10         -6.3380    -0.9740     0.3010 ha         1 OQN       0.110000
     32 H13         -0.8270    -5.2170     0.6440 h1         1 OQN       0.038700
     33 H15         -0.7350    -5.1280    -1.1250 h1         1 OQN       0.038700
     34 H14         -0.1140    -6.5370    -0.2840 h1         1 OQN       0.038700
     35 H9          -7.0620     1.2970    -0.3660 ha         1 OQN       0.111000
     36 H1           1.6170     5.2280     0.1240 hn         1 OQN       0.485500
     37 H2           0.0960     4.5920    -0.2730 hn         1 OQN       0.485500
     38 H12          1.8740    -5.4770     0.1350 hn         1 OQN       0.517000
     39 H16         -0.6170    -2.8570    -0.5030 hn         1 OQN       0.357000
     40 C4          -1.0940     0.0710    -0.6160 c3         1 OQN      -0.006100
     41 H11         -3.9660    -1.4190     0.8020 ha         1 OQN       0.109000
     42 H3          -1.5260    -0.7890    -1.1360 hc         1 OQN       0.050200
     43 H4          -1.2270     0.9270    -1.2780 hc         1 OQN       0.050200
@<TRIPOS>BOND
     1     1    22 2   
     2     1    23 1   
     3     1    24 1   
     4     2     3 ar  
     5     2     4 ar  
     6     2    22 1   
     7     3    12 ar  
     8     3    24 1   
     9     4     5 ar  
    10     4    25 1   
    11     5    10 ar  
    12     5    14 1   
    13     6     8 ar  
    14     6    17 ar  
    15     6    41 1   
    16     7     9 ar  
    17     7    19 ar  
    18     7    26 1   
    19     8     9 ar  
    20     8    11 1   
    21     9    27 1   
    22    10    12 ar  
    23    10    21 1   
    24    11    28 1   
    25    11    29 1   
    26    11    40 1   
    27    12    40 1   
    28    13    14 1   
    29    13    16 1   
    30    13    30 1   
    31    14    15 2   
    32    16    20 1   
    33    16    21 2   
    34    17    19 ar  
    35    17    31 1   
    36    18    23 1   
    37    18    32 1   
    38    18    33 1   
    39    18    34 1   
    40    19    35 1   
    41    20    36 1   
    42    20    37 1   
    43    23    38 1   
    44    24    39 1   
    45    40    42 1   
    46    40    43 1   
@<TRIPOS>SUBSTRUCTURE
     1 OQN         1 TEMP              0 ****  ****    0 ROOT
