@<TRIPOS>MOLECULE
OQN
   43    46     1     0     0
SMALL
No Charge or Current Charge


@<TRIPOS>ATOM
      1 C14          1.2150    -3.4960    -0.0580 cc         1 OQN       0.665700
      2 C13          2.2100    -1.6160     0.0490 ca         1 OQN       0.077400
      3 C12          0.8990    -1.3300    -0.2100 ca         1 OQN      -0.029200
      4 C16          3.1440    -0.5840     0.1850 ca         1 OQN       0.011000
      5 C17          2.6970     0.7530     0.0540 ca         1 OQN      -0.234600
      6 C11         -4.2650    -0.5660     0.4270 ca         1 OQN      -0.109000
      7 C8          -5.2720     1.9880    -0.1740 ca         1 OQN      -0.110000
      8 C6          -3.3900     0.5380     0.3880 ca         1 OQN      -0.075300
      9 C7          -3.9010     1.8150     0.0850 ca         1 OQN      -0.109000
     10 C2           1.3330     1.0510    -0.2130 ca         1 OQN       0.227400
     11 C5          -1.9040     0.3540     0.6630 c3         1 OQN      -0.031100
     12 C3           0.4050    -0.0230    -0.3540 ca         1 OQN      -0.100300
     13 N            3.0950     3.0900     0.0610 ns         1 OQN      -0.454400
     14 C            3.6550     1.8740     0.1960 c          1 OQN       0.592600
     15 O            4.8480     1.7320     0.4150 o          1 OQN      -0.542000
     16 C1           1.7900     3.2810    -0.1880 cc         1 OQN       0.707800
     17 C10         -5.6360    -0.3930     0.1670 ca         1 OQN      -0.110000
     18 C15         -0.3170    -5.4970    -0.1990 c3         1 OQN       0.216100
     19 C9          -6.1400     0.8840    -0.1330 ca         1 OQN      -0.113000
     20 N1           1.4020     4.5390    -0.2900 nv         1 OQN      -1.033200
     21 N2           0.8610     2.3740    -0.3390 nd         1 OQN      -0.711100
     22 N3           2.4290    -2.9910     0.1470 nd         1 OQN      -0.645100
     23 N4           0.9800    -4.8240    -0.0460 nu         1 OQN      -0.909400
     24 N5           0.2580    -2.5320    -0.2780 na         1 OQN      -0.360600
     25 H17          4.1870    -0.8180     0.3910 ha         1 OQN       0.149000
     26 H8          -5.6610     2.9770    -0.4080 ha         1 OQN       0.110000
     27 H7          -3.2350     2.6750     0.0490 ha         1 OQN       0.109000
     28 H6          -1.5190     1.2080     1.2340 hc         1 OQN       0.051700
     29 H5          -1.7410    -0.5300     1.2920 hc         1 OQN       0.051700
     30 H            3.7100     3.8830     0.1260 hn         1 OQN       0.323500
     31 H10         -6.3070    -1.2490     0.1990 ha         1 OQN       0.110000
     32 H13         -1.0160    -5.1670     0.5820 h1         1 OQN       0.038700
     33 H15         -0.7550    -5.2690    -1.1800 h1         1 OQN       0.038700
     34 H14         -0.1960    -6.5850    -0.1180 h1         1 OQN       0.038700
     35 H9          -7.2010     1.0170    -0.3340 ha         1 OQN       0.111000
     36 H1           1.9120     5.2200     0.2570 hn         1 OQN       0.485500
     37 H2           0.3960     4.6550    -0.2990 hn         1 OQN       0.485500
     38 H12          1.8100    -5.3780     0.1610 hn         1 OQN       0.517000
     39 H16         -0.7170    -2.7050    -0.4550 hn         1 OQN       0.357000
     40 C4          -1.0840     0.2060    -0.6350 c3         1 OQN      -0.006100
     41 H11         -3.8830    -1.5580     0.6560 ha         1 OQN       0.109000
     42 H3          -1.4930    -0.6280    -1.2180 hc         1 OQN       0.050200
     43 H4          -1.2350     1.0930    -1.2610 hc         1 OQN       0.050200
@<TRIPOS>BOND
     1     1    22 2   
     2     1    23 1   
     3     1    24 1   
     4     2     3 ar  
     5     2     4 ar  
     6     2    22 1   
     7     3    12 ar  
     8     3    24 1   
     9     4     5 ar  
    10     4    25 1   
    11     5    10 ar  
    12     5    14 1   
    13     6     8 ar  
    14     6    17 ar  
    15     6    41 1   
    16     7     9 ar  
    17     7    19 ar  
    18     7    26 1   
    19     8     9 ar  
    20     8    11 1   
    21     9    27 1   
    22    10    12 ar  
    23    10    21 1   
    24    11    28 1   
    25    11    29 1   
    26    11    40 1   
    27    12    40 1   
    28    13    14 1   
    29    13    16 1   
    30    13    30 1   
    31    14    15 2   
    32    16    20 1   
    33    16    21 2   
    34    17    19 ar  
    35    17    31 1   
    36    18    23 1   
    37    18    32 1   
    38    18    33 1   
    39    18    34 1   
    40    19    35 1   
    41    20    36 1   
    42    20    37 1   
    43    23    38 1   
    44    24    39 1   
    45    40    42 1   
    46    40    43 1   
@<TRIPOS>SUBSTRUCTURE
     1 OQN         1 TEMP              0 ****  ****    0 ROOT
