@<TRIPOS>MOLECULE
OQO
   61    66     1     0     0
SMALL
abcg2


@<TRIPOS>ATOM
      1 C21        -30.6860     6.7920     5.9840 ca         1 OQO      -0.112000
      2 C7         -36.6130     1.5770     2.2110 ca         1 OQO      -0.039000
      3 C32        -28.2580     9.9070     3.8600 ca         1 OQO      -0.112000
      4 C31        -26.9260     9.5320     3.7740 ca         1 OQO      -0.061000
      5 C20        -31.6440     5.8370     6.2790 ca         1 OQO      -0.056000
      6 C6         -37.3730     0.9590     1.2450 ca         1 OQO      -0.227000
      7 C10        -35.6190     4.8410     3.8230 cc         1 OQO       0.263900
      8 C13        -34.4400     2.9800     3.8430 cd         1 OQO      -0.124000
      9 C23        -30.0950     5.4990     4.0630 ca         1 OQO      -0.112300
     10 C35        -31.1560    10.3230     5.0120 cc         1 OQO       0.398400
     11 C22        -29.9040     6.6210     4.8440 cp         1 OQO      -0.014000
     12 C8         -36.3500     2.9550     2.1600 ca         1 OQO      -0.083000
     13 C9         -35.5200     3.5710     3.2010 cc         1 OQO      -0.152000
     14 C26        -28.8900     7.6260     4.4440 cp         1 OQO      -0.051000
     15 C33        -29.2190     8.9630     4.1900 ca         1 OQO       0.039800
     16 C27        -27.5480     7.2810     4.3300 ca         1 OQO       0.200000
     17 C29        -26.5680     8.2120     4.0060 ca         1 OQO       0.079000
     18 C2         -36.8920     3.6590     1.0730 ca         1 OQO       0.409300
     19 C19        -31.8310     4.7290     5.4740 ca         1 OQO      -0.170300
     20 C4         -37.8880     1.7500     0.2060 ca         1 OQO       0.585900
     21 C17        -33.8730     1.0470     7.4340 cx         1 OQO      -0.130400
     22 C18        -34.4720     1.7460     8.6280 cx         1 OQO      -0.130400
     23 C16        -34.3800     2.4580     7.3090 cx         1 OQO      -0.130700
     24 C1         -36.6670     5.1310     0.8680 c3         1 OQO      -0.146400
     25 C15        -33.3980     3.5900     7.1340 c3         1 OQO      -0.053400
     26 C14        -32.8750     3.6690     5.6970 c3         1 OQO       0.168600
     27 N11        -34.6880     5.0070     4.7580 nd         1 OQO      -0.537800
     28 N36        -32.4410    10.3520     4.7420 nd         1 OQO      -0.376000
     29 N3         -37.6390     3.0590     0.1320 nb         1 OQO      -0.750000
     30 N37        -32.6430     9.3980     3.7970 nd         1 OQO      -0.027000
     31 N38        -31.5450     8.8050     3.4950 nc         1 OQO      -0.174800
     32 N12        -33.9760     3.8620     4.7510 na         1 OQO       0.118800
     33 N34        -30.5810     9.3730     4.2550 na         1 OQO      -0.020500
     34 N24        -31.0350     4.5670     4.3670 na         1 OQO       0.452300
     35 N5         -38.7130     1.2130    -0.7580 nv         1 OQO      -1.051900
     36 O25        -31.1760     3.5400     3.5970 o          1 OQO      -0.519000
     37 F28        -27.1840     6.0130     4.5720 f          1 OQO      -0.145000
     38 CL30       -24.9150     7.7100     3.8990 cl         1 OQO      -0.144000
     39 H1         -30.5500     7.6520     6.6230 ha         1 OQO       0.130000
     40 H3         -28.5530    10.9260     3.6550 ha         1 OQO       0.142000
     41 H4         -26.1660    10.2560     3.5160 ha         1 OQO       0.147000
     42 H5         -32.2690     5.9540     7.1510 ha         1 OQO       0.145000
     43 H6         -37.5790    -0.1030     1.2820 ha         1 OQO       0.118000
     44 H7         -36.3340     5.6250     3.6370 h4         1 OQO       0.039100
     45 H8         -33.9710     2.0200     3.7060 h4         1 OQO       0.160000
     46 H9         -29.5370     5.2910     3.1640 h4         1 OQO       0.177000
     47 H10        -30.6240    10.9330     5.7220 h5         1 OQO       0.077100
     48 H11        -34.4410     0.2550     6.9650 hc         1 OQO       0.072450
     49 H12        -32.8000     0.9020     7.4230 hc         1 OQO       0.072450
     50 H13        -35.4470     1.4280     8.9700 hc         1 OQO       0.072450
     51 H14        -33.7980     2.0630     9.4140 hc         1 OQO       0.072450
     52 H15        -35.3120     2.5800     6.7710 hc         1 OQO       0.092700
     53 H16        -36.8390     5.3840    -0.1760 hc         1 OQO       0.053367
     54 H17        -37.3610     5.7200     1.4740 hc         1 OQO       0.053367
     55 H18        -35.6570     5.4280     1.1520 hc         1 OQO       0.053367
     56 H19        -32.5420     3.4420     7.7960 hc         1 OQO       0.059700
     57 H20        -33.8690     4.5340     7.4130 hc         1 OQO       0.059700
     58 H21        -32.4330     2.7110     5.4290 h1         1 OQO       0.099700
     59 H22        -38.8020     1.7620    -1.6010 hn         1 OQO       0.464000
     60 H23        -38.6420     0.2200    -0.9160 hn         1 OQO       0.464000
     61 H2         -36.2160     0.9930     3.0330 ha         1 OQO       0.111000
@<TRIPOS>BOND
     1     1     5 ar  
     2     1    11 ar  
     3     1    39 1   
     4     2     6 ar  
     5     2    12 ar  
     6     2    61 1   
     7     3     4 ar  
     8     3    15 ar  
     9     3    40 1   
    10     4    17 ar  
    11     4    41 1   
    12     5    19 ar  
    13     5    42 1   
    14     6    20 ar  
    15     6    43 1   
    16     7    13 1   
    17     7    27 2   
    18     7    44 1   
    19     8    13 2   
    20     8    32 1   
    21     8    45 1   
    22     9    11 ar  
    23     9    34 2   
    24     9    46 1   
    25    10    28 2   
    26    10    33 1   
    27    10    47 1   
    28    11    14 1   
    29    12    13 1   
    30    12    18 ar  
    31    14    15 ar  
    32    14    16 ar  
    33    15    33 1   
    34    16    17 ar  
    35    16    37 1   
    36    17    38 1   
    37    18    24 1   
    38    18    29 ar  
    39    19    26 1   
    40    19    34 1   
    41    20    29 ar  
    42    20    35 1   
    43    21    22 1   
    44    21    23 1   
    45    21    48 1   
    46    21    49 1   
    47    22    23 1   
    48    22    50 1   
    49    22    51 1   
    50    23    25 1   
    51    23    52 1   
    52    24    53 1   
    53    24    54 1   
    54    24    55 1   
    55    25    26 1   
    56    25    56 1   
    57    25    57 1   
    58    26    32 1   
    59    26    58 1   
    60    27    32 1   
    61    28    30 1   
    62    30    31 2   
    63    31    33 1   
    64    34    36 1   
    65    35    59 1   
    66    35    60 1   
@<TRIPOS>SUBSTRUCTURE
     1 OQO         1 TEMP              0 ****  ****    0 ROOT
