@<TRIPOS>MOLECULE
OQO
   61    66     1     0     0
SMALL
No Charge or Current Charge


@<TRIPOS>ATOM
      1 C21        -31.0130     6.9390     5.7100 ca         1 OQO      -0.112000
      2 C7         -36.0560     1.8750     1.6230 ca         1 OQO      -0.039000
      3 C32        -28.0600     9.6980     3.5570 ca         1 OQO      -0.112000
      4 C31        -26.7900     9.5360     4.1360 ca         1 OQO      -0.061000
      5 C20        -32.0080     5.9970     5.9830 ca         1 OQO      -0.056000
      6 C6         -36.7300     1.3830     0.4980 ca         1 OQO      -0.227000
      7 C10        -35.9440     4.7660     4.1930 cc         1 OQO       0.263900
      8 C13        -34.5580     3.0860     3.8100 cd         1 OQO      -0.124000
      9 C23        -29.7520     5.2760     4.4090 ca         1 OQO      -0.112300
     10 C35        -31.2900     9.7230     3.5970 cc         1 OQO       0.398400
     11 C22        -29.8900     6.5900     4.9290 cp         1 OQO      -0.014000
     12 C8         -36.4180     3.1400     2.1490 ca         1 OQO      -0.083000
     13 C9         -35.7130     3.6580     3.3500 cc         1 OQO      -0.152000
     14 C26        -28.8340     7.6080     4.6410 cp         1 OQO      -0.051000
     15 C33        -29.0580     8.7420     3.8080 ca         1 OQO       0.039800
     16 C27        -27.5390     7.4690     5.2030 ca         1 OQO       0.200000
     17 C29        -26.5290     8.4230     4.9550 ca         1 OQO       0.079000
     18 C2         -37.4690     3.8390     1.4710 ca         1 OQO       0.409300
     19 C19        -31.8870     4.6940     5.4680 ca         1 OQO      -0.170300
     20 C4         -37.7380     2.1600    -0.0620 ca         1 OQO       0.585900
     21 C17        -33.6230     0.9110     7.6730 cx         1 OQO      -0.130400
     22 C18        -34.1150     1.6120     8.9200 cx         1 OQO      -0.130400
     23 C16        -34.1930     2.3070     7.5810 cx         1 OQO      -0.130700
     24 C1         -37.9600     5.2220     1.8700 c3         1 OQO      -0.146400
     25 C15        -33.2970     3.5030     7.2610 c3         1 OQO      -0.053400
     26 C14        -32.9740     3.6410     5.7480 c3         1 OQO       0.168600
     27 N11        -35.0480     4.9190     5.1450 nd         1 OQO      -0.537800
     28 N36        -32.2950     9.5090     2.7670 nd         1 OQO      -0.376000
     29 N3         -38.1100     3.3460     0.3820 nb         1 OQO      -0.750000
     30 N37        -31.9000     8.4870     1.9190 nd         1 OQO      -0.027000
     31 N38        -30.6890     8.0670     2.1850 nc         1 OQO      -0.174800
     32 N12        -34.1770     3.8620     4.9100 na         1 OQO       0.118800
     33 N34        -30.3330     8.8170     3.2480 na         1 OQO      -0.020500
     34 N24        -30.7890     4.3690     4.6520 na         1 OQO       0.452300
     35 N5         -38.4430     1.7990    -1.1350 nv         1 OQO      -1.051900
     36 O25        -30.7380     3.2650     4.0930 o          1 OQO      -0.519000
     37 F28        -27.2660     6.4110     6.0030 f          1 OQO      -0.145000
     38 Cl30       -24.9270     8.2390     5.6680 cl         1 OQO      -0.144000
     39 H1         -31.1040     7.9460     6.1100 ha         1 OQO       0.130000
     40 H3         -28.2630    10.5510     2.9130 ha         1 OQO       0.142000
     41 H4         -26.0080    10.2680     3.9480 ha         1 OQO       0.147000
     42 H5         -32.8670     6.2860     6.5850 ha         1 OQO       0.145000
     43 H6         -36.4780     0.4140     0.0770 ha         1 OQO       0.118000
     44 H7         -36.7530     5.4800     4.1620 h4         1 OQO       0.039100
     45 H8         -33.9730     2.2400     3.4700 h4         1 OQO       0.160000
     46 H9         -28.9120     4.9550     3.7970 h4         1 OQO       0.177000
     47 H10        -31.2040    10.4460     4.3980 h5         1 OQO       0.077100
     48 H11        -34.2230     0.0930     7.2810 hc         1 OQO       0.072450
     49 H12        -32.5490     0.7850     7.5540 hc         1 OQO       0.072450
     50 H13        -35.0440     1.2640     9.3650 hc         1 OQO       0.072450
     51 H14        -33.3700     1.9550     9.6340 hc         1 OQO       0.072450
     52 H15        -35.1860     2.4000     7.1440 hc         1 OQO       0.092700
     53 H16        -38.6480     5.6450     1.1270 hc         1 OQO       0.053367
     54 H17        -38.5020     5.1840     2.8210 hc         1 OQO       0.053367
     55 H18        -37.1250     5.9260     1.9590 hc         1 OQO       0.053367
     56 H19        -32.3500     3.4110     7.8070 hc         1 OQO       0.059700
     57 H20        -33.7750     4.4180     7.6280 hc         1 OQO       0.059700
     58 H21        -32.5850     2.6580     5.4560 h1         1 OQO       0.099700
     59 H22        -38.9700     2.5470    -1.5700 hn         1 OQO       0.464000
     60 H23        -38.0410     1.1040    -1.7540 hn         1 OQO       0.464000
     61 H2         -35.2820     1.2630     2.0750 ha         1 OQO       0.111000
@<TRIPOS>BOND
     1     1     5 ar  
     2     1    11 ar  
     3     1    39 1   
     4     2     6 ar  
     5     2    12 ar  
     6     2    61 1   
     7     3     4 ar  
     8     3    15 ar  
     9     3    40 1   
    10     4    17 ar  
    11     4    41 1   
    12     5    19 ar  
    13     5    42 1   
    14     6    20 ar  
    15     6    43 1   
    16     7    13 1   
    17     7    27 2   
    18     7    44 1   
    19     8    13 2   
    20     8    32 1   
    21     8    45 1   
    22     9    11 ar  
    23     9    34 2   
    24     9    46 1   
    25    10    28 2   
    26    10    33 1   
    27    10    47 1   
    28    11    14 1   
    29    12    13 1   
    30    12    18 ar  
    31    14    15 ar  
    32    14    16 ar  
    33    15    33 1   
    34    16    17 ar  
    35    16    37 1   
    36    17    38 1   
    37    18    24 1   
    38    18    29 ar  
    39    19    26 1   
    40    19    34 1   
    41    20    29 ar  
    42    20    35 1   
    43    21    22 1   
    44    21    23 1   
    45    21    48 1   
    46    21    49 1   
    47    22    23 1   
    48    22    50 1   
    49    22    51 1   
    50    23    25 1   
    51    23    52 1   
    52    24    53 1   
    53    24    54 1   
    54    24    55 1   
    55    25    26 1   
    56    25    56 1   
    57    25    57 1   
    58    26    32 1   
    59    26    58 1   
    60    27    32 1   
    61    28    30 1   
    62    30    31 2   
    63    31    33 1   
    64    34    36 1   
    65    35    59 1   
    66    35    60 1   
@<TRIPOS>SUBSTRUCTURE
     1 OQO         1 TEMP              0 ****  ****    0 ROOT
