@<TRIPOS>MOLECULE
OQP
   87    91     1     0     0
SMALL
No Charge or Current Charge


@<TRIPOS>ATOM
      1 C15         75.0840    59.4880    19.1030 c5         1 OQP       0.162300
      2 C17         72.8520    52.1890    18.2830 ca         1 OQP      -0.111500
      3 C20         73.4410    51.8990    15.5520 ca         1 OQP      -0.103000
      4 C21         73.6110    53.1530    16.1720 ca         1 OQP      -0.078300
      5 C26         69.4880    53.9250    14.8550 c5         1 OQP       0.062400
      6 C28         70.6290    54.7020    15.6380 c          1 OQP       0.593100
      7 C01         69.2940    59.6600    18.9200 ca         1 OQP      -0.112000
      8 C02         69.3630    61.0450    19.1470 ca         1 OQP      -0.112000
      9 C03         68.0340    54.2570    15.3120 c5         1 OQP      -0.084900
     10 C04         67.8220    53.3430    16.5660 c5         1 OQP      -0.078900
     11 C05         68.9880    52.3000    16.5400 c5         1 OQP      -0.078900
     12 C06         69.5390    52.3940    15.0950 c5         1 OQP      -0.084900
     13 C07         69.2910    56.3680    10.6560 c3         1 OQP       0.170900
     14 C08         72.9270    60.8620    19.8150 c5         1 OQP      -0.098400
     15 C09         73.3060    62.2290    19.2020 c5         1 OQP       0.153600
     16 C11         74.3360    60.3050    20.2360 c5         1 OQP      -0.148700
     17 C12         75.1970    61.6050    20.3850 c5         1 OQP       0.372300
     18 C14         76.4710    60.1840    19.0830 c5         1 OQP       0.152600
     19 C16         73.3180    53.2900    17.5430 ca         1 OQP      -0.103000
     20 C18         72.6800    50.9440    17.6580 ca         1 OQP      -0.113000
     21 C19         72.9770    50.7980    16.2930 ca         1 OQP      -0.111500
     22 C29         70.3150    61.3570    16.9270 ca         1 OQP      -0.102000
     23 C30         69.8720    61.8930    18.1490 ca         1 OQP      -0.112000
     24 C31         69.7320    59.1240    17.6970 ca         1 OQP      -0.102000
     25 C32         70.2480    59.9690    16.6930 ca         1 OQP      -0.085300
     26 C34         70.7280    59.3840    15.3660 c3         1 OQP      -0.048100
     27 C37         73.5520    58.7510    17.4290 c          1 OQP       0.640100
     28 C39         71.9350    58.4260    15.5270 c3         1 OQP       0.087700
     29 C40         72.3940    57.7750    14.1830 c3         1 OQP       0.167300
     30 C41         74.0800    54.3600    15.3610 c3         1 OQP      -0.044100
     31 C42         73.4470    56.6490    14.3570 c3         1 OQP      -0.086400
     32 C43         73.0060    55.4700    15.2600 c3         1 OQP       0.104700
     33 N25         69.5790    54.0850    13.3770 ns         1 OQP      -0.492900
     34 N38         73.0430    59.1050    16.2140 ns         1 OQP      -0.487900
     35 N44         71.7250    54.9050    14.8200 ns         1 OQP      -0.501900
     36 O10         74.3010    62.7030    20.1280 os         1 OQP      -0.443000
     37 O13         76.1650    61.5690    19.3240 os         1 OQP      -0.458000
     38 O22         69.1230    56.3530    13.4030 o          1 OQP      -0.571000
     39 O23         69.4550    55.1840    11.4570 os         1 OQP      -0.453100
     40 O27         70.5610    55.1650    16.7690 o          1 OQP      -0.605100
     41 O33         73.1950    57.7860    18.0870 o          1 OQP      -0.544000
     42 O35         72.9500    58.7710    13.3080 oh         1 OQP      -0.663000
     43 O36         74.4970    59.6730    17.7810 os         1 OQP      -0.453100
     44 H151        75.1950    58.4190    19.3360 h1         1 OQP       0.085700
     45 H201        73.6590    51.7770    14.4930 ha         1 OQP       0.116000
     46 H011        68.9000    59.0020    19.6920 ha         1 OQP       0.114000
     47 H021        69.0230    61.4600    20.0930 ha         1 OQP       0.112000
     48 H032        67.3010    54.0060    14.5360 hc         1 OQP       0.064450
     49 H031        67.8960    55.3180    15.5490 hc         1 OQP       0.064450
     50 H041        67.8400    53.9240    17.4950 hc         1 OQP       0.046950
     51 H042        66.8430    52.8500    16.5250 hc         1 OQP       0.046950
     52 H051        69.7600    52.5520    17.2770 hc         1 OQP       0.046950
     53 H052        68.6430    51.2890    16.7840 hc         1 OQP       0.046950
     54 H062        68.8960    51.8430    14.3980 hc         1 OQP       0.064450
     55 H061        70.5500    51.9820    15.0040 hc         1 OQP       0.064450
     56 H071        69.4110    56.1300     9.5920 h1         1 OQP       0.048367
     57 H072        68.2930    56.8020    10.7980 h1         1 OQP       0.048367
     58 H073        70.0400    57.1260    10.9220 h1         1 OQP       0.048367
     59 H082        72.2960    61.0160    20.6980 hc         1 OQP       0.065700
     60 H081        72.3480    60.2270    19.1410 hc         1 OQP       0.065700
     61 H091        72.4620    62.9300    19.1590 h1         1 OQP       0.053700
     62 H092        73.7470    62.1370    18.2000 h1         1 OQP       0.053700
     63 H111        74.2940    59.7410    21.1740 hc         1 OQP       0.075700
     64 H121        75.6830    61.6900    21.3670 h2         1 OQP       0.077700
     65 H141        76.9940    60.0720    18.1240 h1         1 OQP       0.060700
     66 H142        77.1200    59.8120    19.8870 h1         1 OQP       0.060700
     67 H161        73.4410    54.2520    18.0350 ha         1 OQP       0.116000
     68 H181        72.3180    50.0920    18.2300 ha         1 OQP       0.110000
     69 H191        72.8440    49.8340    15.8070 ha         1 OQP       0.110500
     70 H291        70.7100    62.0230    16.1640 ha         1 OQP       0.119500
     71 H301        69.9240    62.9660    18.3230 ha         1 OQP       0.114000
     72 H311        69.6710    58.0510    17.5310 ha         1 OQP       0.119500
     73 H342        70.9950    60.1910    14.6740 hc         1 OQP       0.047700
     74 H341        69.9040    58.8370    14.8930 hc         1 OQP       0.047700
     75 H391        71.5820    57.6120    16.1720 h1         1 OQP       0.107700
     76 H401        71.5110    57.3320    13.7060 h1         1 OQP       0.038700
     77 H411        74.9850    54.7810    15.8150 hc         1 OQP       0.054700
     78 H412        74.3650    54.0470    14.3490 hc         1 OQP       0.054700
     79 H422        73.6990    56.2570    13.3650 hc         1 OQP       0.061700
     80 H421        74.3710    57.0790    14.7640 hc         1 OQP       0.061700
     81 H431        72.8760    55.8650    16.2760 h1         1 OQP       0.098700
     82 H251        69.7330    53.3210    12.7300 hn         1 OQP       0.334500
     83 H381        73.4590    59.9190    15.7820 hn         1 OQP       0.332500
     84 H441        71.6620    54.5110    13.8900 hn         1 OQP       0.341500
     85 H351        72.2100    59.3420    13.0090 ho         1 OQP       0.442000
     86 H171        72.6220    52.3040    19.3400 ha         1 OQP       0.110500
     87 C24         69.3320    55.3100    12.8060 c          1 OQP       0.648100
@<TRIPOS>BOND
     1     1    16 1   
     2     1    18 1   
     3     1    43 1   
     4     1    44 1   
     5     2    19 ar  
     6     2    20 ar  
     7     2    86 1   
     8     3     4 ar  
     9     3    21 ar  
    10     3    45 1   
    11     4    19 ar  
    12     4    30 1   
    13     5     6 1   
    14     5     9 1   
    15     5    12 1   
    16     5    33 1   
    17     6    35 1   
    18     6    40 2   
    19     7     8 ar  
    20     7    24 ar  
    21     7    46 1   
    22     8    23 ar  
    23     8    47 1   
    24     9    10 1   
    25     9    48 1   
    26     9    49 1   
    27    10    11 1   
    28    10    50 1   
    29    10    51 1   
    30    11    12 1   
    31    11    52 1   
    32    11    53 1   
    33    12    54 1   
    34    12    55 1   
    35    13    39 1   
    36    13    56 1   
    37    13    57 1   
    38    13    58 1   
    39    14    15 1   
    40    14    16 1   
    41    14    59 1   
    42    14    60 1   
    43    15    36 1   
    44    15    61 1   
    45    15    62 1   
    46    16    17 1   
    47    16    63 1   
    48    17    36 1   
    49    17    37 1   
    50    17    64 1   
    51    18    37 1   
    52    18    65 1   
    53    18    66 1   
    54    19    67 1   
    55    20    21 ar  
    56    20    68 1   
    57    21    69 1   
    58    22    23 ar  
    59    22    25 ar  
    60    22    70 1   
    61    23    71 1   
    62    24    25 ar  
    63    24    72 1   
    64    25    26 1   
    65    26    28 1   
    66    26    73 1   
    67    26    74 1   
    68    27    34 1   
    69    27    41 2   
    70    27    43 1   
    71    28    29 1   
    72    28    34 1   
    73    28    75 1   
    74    29    31 1   
    75    29    42 1   
    76    29    76 1   
    77    30    32 1   
    78    30    77 1   
    79    30    78 1   
    80    31    32 1   
    81    31    79 1   
    82    31    80 1   
    83    32    35 1   
    84    32    81 1   
    85    33    82 1   
    86    33    87 1   
    87    34    83 1   
    88    35    84 1   
    89    38    87 2   
    90    39    87 1   
    91    42    85 1   
@<TRIPOS>SUBSTRUCTURE
     1 OQP         1 TEMP              0 ****  ****    0 ROOT
