@<TRIPOS>MOLECULE
OQP
   87    91     1     0     0
SMALL
abcg2


@<TRIPOS>ATOM
      1 C15         75.3410    59.8910    18.7570 c5         1 OQP       0.162300
      2 C17         73.8830    52.2860    16.9710 ca         1 OQP      -0.111500
      3 C20         73.4340    52.6760    14.2680 ca         1 OQP      -0.103000
      4 C21         73.7860    53.7650    15.0600 ca         1 OQP      -0.078300
      5 C26         69.3240    54.3610    15.1590 c5         1 OQP       0.062400
      6 C28         70.5990    55.0560    15.6630 c          1 OQP       0.593100
      7 C01         69.8000    58.9530    20.0890 ca         1 OQP      -0.112000
      8 C02         69.7600    60.2660    20.5430 ca         1 OQP      -0.112000
      9 C03         68.4940    55.2540    14.2210 c5         1 OQP      -0.084900
     10 C04         67.1120    54.5960    14.1990 c5         1 OQP      -0.078900
     11 C05         66.9890    53.8520    15.5470 c5         1 OQP      -0.078900
     12 C06         68.3110    54.1130    16.2790 c5         1 OQP      -0.084900
     13 C07         70.7730    51.0780    11.8960 c3         1 OQP       0.170900
     14 C08         73.3710    60.8310    20.2210 c5         1 OQP      -0.098400
     15 C09         73.2360    62.2390    19.6610 c5         1 OQP       0.153600
     16 C11         74.8640    60.5450    20.0630 c5         1 OQP      -0.148700
     17 C12         75.4880    61.9610    20.0210 c5         1 OQP       0.372300
     18 C14         76.5660    60.7250    18.4330 c5         1 OQP       0.152600
     19 C16         74.0110    53.5520    16.4190 ca         1 OQP      -0.103000
     20 C18         73.5230    51.2080    16.1710 ca         1 OQP      -0.113000
     21 C19         73.3000    51.4070    14.8160 ca         1 OQP      -0.111500
     22 C29         70.0490    61.0340    18.2820 ca         1 OQP      -0.102000
     23 C30         69.8840    61.3060    19.6340 ca         1 OQP      -0.112000
     24 C31         69.9560    58.6860    18.7370 ca         1 OQP      -0.102000
     25 C32         70.0790    59.7240    17.8140 ca         1 OQP      -0.085300
     26 C34         70.2400    59.4280    16.3500 c3         1 OQP      -0.048100
     27 C37         73.5270    59.0880    17.4430 c          1 OQP       0.640100
     28 C39         71.5480    58.6910    16.0370 c3         1 OQP       0.087700
     29 C40         71.6570    58.3470    14.5460 c3         1 OQP       0.167300
     30 C41         73.8830    55.1430    14.4720 c3         1 OQP      -0.044100
     31 C42         72.8150    57.4110    14.2320 c3         1 OQP      -0.086400
     32 C43         72.7370    56.0540    14.9340 c3         1 OQP       0.104700
     33 N25         69.6220    53.0590    14.5710 ns         1 OQP      -0.492900
     34 N38         72.6850    59.4680    16.4680 ns         1 OQP      -0.487900
     35 N44         71.4580    55.4190    14.6970 ns         1 OQP      -0.501900
     36 O10         74.4550    62.8860    20.0190 os         1 OQP      -0.443000
     37 O13         76.2290    62.0390    18.8250 os         1 OQP      -0.458000
     38 O22         70.5040    53.6470    12.5450 o          1 OQP      -0.571000
     39 O23         70.2170    51.4990    13.1360 os         1 OQP      -0.453100
     40 O27         70.7760    55.2840    16.8500 o          1 OQP      -0.605100
     41 O33         73.5150    58.0200    18.0190 o          1 OQP      -0.544000
     42 O35         71.8440    59.5170    13.7710 oh         1 OQP      -0.663000
     43 O36         74.4120    60.0660    17.6920 os         1 OQP      -0.453100
     44 H151        75.5830    58.8370    18.8830 h1         1 OQP       0.085700
     45 H201        73.2670    52.8240    13.2080 ha         1 OQP       0.116000
     46 H011        69.7080    58.1340    20.7910 ha         1 OQP       0.114000
     47 H021        69.6350    60.4740    21.5980 ha         1 OQP       0.112000
     48 H032        68.9230    55.3980    13.2320 hc         1 OQP       0.064450
     49 H031        68.4300    56.2420    14.6870 hc         1 OQP       0.064450
     50 H041        66.3280    55.3420    14.0640 hc         1 OQP       0.046950
     51 H042        67.0290    53.9000    13.3640 hc         1 OQP       0.046950
     52 H051        66.1420    54.2010    16.1370 hc         1 OQP       0.046950
     53 H052        66.8380    52.7840    15.3850 hc         1 OQP       0.046950
     54 H062        68.6040    53.3000    16.9470 hc         1 OQP       0.064450
     55 H061        68.2410    55.0130    16.8900 hc         1 OQP       0.064450
     56 H071        70.7180    49.9930    11.9010 h1         1 OQP       0.048367
     57 H072        70.2080    51.4600    11.0460 h1         1 OQP       0.048367
     58 H073        71.8160    51.3790    11.7960 h1         1 OQP       0.048367
     59 H082        73.1110    60.8280    21.2810 hc         1 OQP       0.065700
     60 H081        72.7080    60.1170    19.7350 hc         1 OQP       0.065700
     61 H091        72.4150    62.8030    20.1020 h1         1 OQP       0.053700
     62 H092        73.0950    62.2310    18.5750 h1         1 OQP       0.053700
     63 H111        75.2570    59.9680    20.9000 hc         1 OQP       0.075700
     64 H121        76.1400    62.1830    20.8730 h2         1 OQP       0.077700
     65 H141        76.8310    60.7180    17.3750 h1         1 OQP       0.060700
     66 H142        77.4230    60.3430    19.0020 h1         1 OQP       0.060700
     67 H161        74.2930    54.3860    17.0520 ha         1 OQP       0.116000
     68 H181        73.4230    50.2190    16.6010 ha         1 OQP       0.110000
     69 H191        73.0290    50.5720    14.1820 ha         1 OQP       0.110500
     70 H291        70.1460    61.8520    17.5780 ha         1 OQP       0.119500
     71 H301        69.8540    62.3330    19.9760 ha         1 OQP       0.114000
     72 H311        69.9820    57.6570    18.3920 ha         1 OQP       0.119500
     73 H342        70.1880    60.3600    15.7800 hc         1 OQP       0.047700
     74 H341        69.4090    58.8050    16.0020 hc         1 OQP       0.047700
     75 H391        71.5500    57.7650    16.6100 h1         1 OQP       0.107700
     76 H401        70.7210    57.8510    14.2560 h1         1 OQP       0.038700
     77 H411        74.8280    55.6130    14.7570 hc         1 OQP       0.054700
     78 H412        73.8800    55.0830    13.3800 hc         1 OQP       0.054700
     79 H422        72.8410    57.2500    13.1500 hc         1 OQP       0.061700
     80 H421        73.7630    57.8860    14.5000 hc         1 OQP       0.061700
     81 H431        72.8310    56.1930    16.0120 h1         1 OQP       0.098700
     82 H251        69.4700    52.2570    15.1650 hn         1 OQP       0.334500
     83 H381        72.8000    60.3880    16.0720 hn         1 OQP       0.332500
     84 H441        71.2420    55.1410    13.7480 hn         1 OQP       0.341500
     85 H351        70.9980    59.9650    13.6750 ho         1 OQP       0.442000
     86 H171        74.0640    52.1390    18.0280 ha         1 OQP       0.110500
     87 C24         70.1450    52.8130    13.3560 c          1 OQP       0.648100
@<TRIPOS>BOND
     1     1    16 1   
     2     1    18 1   
     3     1    43 1   
     4     1    44 1   
     5     2    19 ar  
     6     2    20 ar  
     7     2    86 1   
     8     3     4 ar  
     9     3    21 ar  
    10     3    45 1   
    11     4    19 ar  
    12     4    30 1   
    13     5     6 1   
    14     5     9 1   
    15     5    12 1   
    16     5    33 1   
    17     6    35 1   
    18     6    40 2   
    19     7     8 ar  
    20     7    24 ar  
    21     7    46 1   
    22     8    23 ar  
    23     8    47 1   
    24     9    10 1   
    25     9    48 1   
    26     9    49 1   
    27    10    11 1   
    28    10    50 1   
    29    10    51 1   
    30    11    12 1   
    31    11    52 1   
    32    11    53 1   
    33    12    54 1   
    34    12    55 1   
    35    13    39 1   
    36    13    56 1   
    37    13    57 1   
    38    13    58 1   
    39    14    15 1   
    40    14    16 1   
    41    14    59 1   
    42    14    60 1   
    43    15    36 1   
    44    15    61 1   
    45    15    62 1   
    46    16    17 1   
    47    16    63 1   
    48    17    36 1   
    49    17    37 1   
    50    17    64 1   
    51    18    37 1   
    52    18    65 1   
    53    18    66 1   
    54    19    67 1   
    55    20    21 ar  
    56    20    68 1   
    57    21    69 1   
    58    22    23 ar  
    59    22    25 ar  
    60    22    70 1   
    61    23    71 1   
    62    24    25 ar  
    63    24    72 1   
    64    25    26 1   
    65    26    28 1   
    66    26    73 1   
    67    26    74 1   
    68    27    34 1   
    69    27    41 2   
    70    27    43 1   
    71    28    29 1   
    72    28    34 1   
    73    28    75 1   
    74    29    31 1   
    75    29    42 1   
    76    29    76 1   
    77    30    32 1   
    78    30    77 1   
    79    30    78 1   
    80    31    32 1   
    81    31    79 1   
    82    31    80 1   
    83    32    35 1   
    84    32    81 1   
    85    33    82 1   
    86    33    87 1   
    87    34    83 1   
    88    35    84 1   
    89    38    87 2   
    90    39    87 1   
    91    42    85 1   
@<TRIPOS>SUBSTRUCTURE
     1 OQP         1 TEMP              0 ****  ****    0 ROOT
