@<TRIPOS>MOLECULE
OQQ
   46    49     1     0     0
SMALL
abcg2


@<TRIPOS>ATOM
      1 N           -2.8320     4.4790    -0.1150 nu         1 OQQ      -0.910400
      2 C1          -2.8760     3.1440    -0.1210 cc         1 OQQ       0.687700
      3 C2          -3.7300     1.1150    -0.0450 ca         1 OQQ      -0.126200
      4 C           -3.9780     5.3160     0.1430 c3         1 OQQ       0.216100
      5 C10          0.5840     0.0290     0.8410 c3         1 OQQ      -0.039100
      6 C11          2.0680     0.1130     0.6360 ca         1 OQQ      -0.045300
      7 C12          2.8670    -1.0250     0.6870 ca         1 OQQ      -0.117500
      8 C13          4.2300    -0.9540     0.4430 ca         1 OQQ      -0.058500
      9 C14          4.8170     0.2710     0.1460 ca         1 OQQ      -0.201300
     10 C15          6.2760     0.3470    -0.1690 c3         1 OQQ       0.357300
     11 C16          4.0310     1.4170     0.0900 ca         1 OQQ      -0.058500
     12 C17          2.6700     1.3320     0.3350 ca         1 OQQ      -0.117500
     13 C18         -2.3290     1.0880    -0.2250 ca         1 OQQ       0.167400
     14 C3          -4.4880    -0.0240     0.0330 ca         1 OQQ      -0.008000
     15 C4          -3.8140    -1.2460    -0.0640 ca         1 OQQ      -0.226600
     16 C5          -4.5550    -2.5140     0.0130 c          1 OQQ       0.739100
     17 C6          -2.5600    -3.6610    -0.2250 cc         1 OQQ       0.911100
     18 C7          -2.4200    -1.2760    -0.2340 ca         1 OQQ       0.327000
     19 C8          -1.6430    -0.1180    -0.3330 ca         1 OQQ      -0.125300
     20 C9          -0.1520    -0.1110    -0.5020 c3         1 OQQ      -0.010100
     21 F            6.8100     1.5260     0.1710 f          1 OQQ      -0.115000
     22 F1           6.9840    -0.5990     0.4590 f          1 OQQ      -0.115000
     23 F2           6.5070     0.1880    -1.4830 f          1 OQQ      -0.115000
     24 N1          -4.0430     2.4570     0.0180 na         1 OQQ      -0.350600
     25 N2          -3.8620    -3.6800    -0.0780 nd         1 OQQ      -0.797100
     26 N3          -1.8940    -4.8160    -0.3060 nv         1 OQQ      -1.069200
     27 N4          -1.8310    -2.5270    -0.3030 na         1 OQQ      -0.936200
     28 N5          -1.8260     2.3560    -0.2680 nd         1 OQQ      -0.678100
     29 H1          -1.9170     4.8970    -0.1470 hn         1 OQQ       0.522000
     30 H2          -4.4030     5.1450     1.1350 h1         1 OQQ       0.041700
     31 H3          -3.6630     6.3530     0.0860 h1         1 OQQ       0.041700
     32 H4          -4.7610     5.1640    -0.6010 h1         1 OQQ       0.041700
     33 H5           0.3420    -0.8180     1.4860 hc         1 OQQ       0.058700
     34 H6           0.2240     0.9280     1.3440 hc         1 OQQ       0.058700
     35 H7           2.4230    -1.9840     0.9260 ha         1 OQQ       0.120000
     36 H8           4.8220    -1.8580     0.4920 ha         1 OQQ       0.128000
     37 H9           4.4650     2.3810    -0.1390 ha         1 OQQ       0.128000
     38 H10          2.0660     2.2310     0.2940 ha         1 OQQ       0.120000
     39 H11         -5.5610     0.0010     0.1640 ha         1 OQQ       0.145000
     40 H12          0.1210     0.7290    -1.1430 hc         1 OQQ       0.051200
     41 H13          0.2090    -1.0010    -1.0240 hc         1 OQQ       0.051200
     42 H14         -4.9620     2.8470     0.1490 hn         1 OQQ       0.360000
     43 H15         -2.4050    -5.6780    -0.2370 hn         1 OQQ       0.508500
     44 H16         -0.8950    -4.8630    -0.4060 hn         1 OQQ       0.508500
     45 H17         -0.8310    -2.5970    -0.4060 hn         1 OQQ       0.498000
     46 O           -5.7770    -2.5240     0.1550 o          1 OQQ      -0.571100
@<TRIPOS>BOND
     1     1     2 1   
     2     1     4 1   
     3     1    29 1   
     4     2    24 1   
     5     2    28 2   
     6     3    13 ar  
     7     3    14 ar  
     8     3    24 1   
     9     4    30 1   
    10     4    31 1   
    11     4    32 1   
    12     5     6 1   
    13     5    20 1   
    14     5    33 1   
    15     5    34 1   
    16     6     7 ar  
    17     6    12 ar  
    18     7     8 ar  
    19     7    35 1   
    20     8     9 ar  
    21     8    36 1   
    22     9    10 1   
    23     9    11 ar  
    24    10    21 1   
    25    10    22 1   
    26    10    23 1   
    27    11    12 ar  
    28    11    37 1   
    29    12    38 1   
    30    13    19 ar  
    31    13    28 1   
    32    14    15 ar  
    33    14    39 1   
    34    15    16 1   
    35    15    18 ar  
    36    16    25 1   
    37    16    46 2   
    38    17    25 2   
    39    17    26 1   
    40    17    27 1   
    41    18    19 ar  
    42    18    27 1   
    43    19    20 1   
    44    20    40 1   
    45    20    41 1   
    46    24    42 1   
    47    26    43 1   
    48    26    44 1   
    49    27    45 1   
@<TRIPOS>SUBSTRUCTURE
     1 OQQ         1 TEMP              0 ****  ****    0 ROOT
