@<TRIPOS>MOLECULE
OQQ
   46    49     1     0     0
SMALL
No Charge or Current Charge


@<TRIPOS>ATOM
      1 N           -3.0770     4.5640    -0.1320 nu         1 OQQ      -0.910400
      2 C1          -3.0950     3.2160    -0.1380 cc         1 OQQ       0.687700
      3 C2          -3.8000     1.1470    -0.0480 ca         1 OQQ      -0.126200
      4 C           -4.2070     5.4660     0.1380 c3         1 OQQ       0.216100
      5 C10          0.5950    -0.0350     0.7530 c3         1 OQQ      -0.039100
      6 C11          2.1020     0.0140     0.5410 ca         1 OQQ      -0.045300
      7 C12          2.8620    -1.1700     0.5410 ca         1 OQQ      -0.117500
      8 C13          4.2530    -1.1230     0.3400 ca         1 OQQ      -0.058500
      9 C14          4.9070     0.1120     0.1410 ca         1 OQQ      -0.201300
     10 C15          6.4220     0.1640    -0.0900 c3         1 OQQ       0.357300
     11 C16          4.1380     1.2960     0.1320 ca         1 OQQ      -0.058500
     12 C17          2.7480     1.2450     0.3330 ca         1 OQQ      -0.117500
     13 C18         -2.4470     1.1820    -0.2470 ca         1 OQQ       0.167400
     14 C3          -4.5240    -0.0410     0.0560 ca         1 OQQ      -0.008000
     15 C4          -3.7950    -1.2440    -0.0500 ca         1 OQQ      -0.226600
     16 C5          -4.4480    -2.5620     0.0490 c          1 OQQ       0.739100
     17 C6          -2.3810    -3.6020    -0.2090 cc         1 OQQ       0.911100
     18 C7          -2.4100    -1.2360    -0.2530 ca         1 OQQ       0.327000
     19 C8          -1.7020    -0.0080    -0.3610 ca         1 OQQ      -0.125300
     20 C9          -0.1850     0.0480    -0.5760 c3         1 OQQ      -0.010100
     21 F            6.9710     1.3180     0.3540 f          1 OQQ      -0.115000
     22 F1           7.0740    -0.8400     0.5420 f          1 OQQ      -0.115000
     23 F2           6.7220     0.0630    -1.4040 f          1 OQQ      -0.115000
     24 N1          -4.2210     2.4410     0.0210 na         1 OQQ      -0.350600
     25 N2          -3.6470    -3.6850    -0.0380 nd         1 OQQ      -0.797100
     26 N3          -1.6570    -4.6660    -0.2910 nv         1 OQQ      -1.069200
     27 N4          -1.7370    -2.4440    -0.3490 na         1 OQQ      -0.936200
     28 N5          -1.9870     2.5020    -0.3050 nd         1 OQQ      -0.678100
     29 H1          -2.1390     4.9500    -0.2200 hn         1 OQQ       0.522000
     30 H2          -4.6350     5.2610     1.1280 h1         1 OQQ       0.041700
     31 H3          -3.8770     6.5130     0.1130 h1         1 OQQ       0.041700
     32 H4          -4.9940     5.3330    -0.6170 h1         1 OQQ       0.041700
     33 H5           0.3140    -0.9540     1.2810 hc         1 OQQ       0.058700
     34 H6           0.2830     0.7940     1.4000 hc         1 OQQ       0.058700
     35 H7           2.3770    -2.1310     0.6940 ha         1 OQQ       0.120000
     36 H8           4.8180    -2.0530     0.3380 ha         1 OQQ       0.128000
     37 H9           4.6130     2.2610    -0.0350 ha         1 OQQ       0.128000
     38 H10          2.1710     2.1670     0.3230 ha         1 OQQ       0.120000
     39 H11         -5.6020    -0.0340     0.2150 ha         1 OQQ       0.145000
     40 H12          0.0930     0.9760    -1.0900 hc         1 OQQ       0.051200
     41 H13          0.1470    -0.7560    -1.2430 hc         1 OQQ       0.051200
     42 H14         -5.1580     2.7880     0.1570 hn         1 OQQ       0.360000
     43 H15         -2.1970    -5.4840    -0.0500 hn         1 OQQ       0.508500
     44 H16         -0.7750    -4.6050     0.1930 hn         1 OQQ       0.508500
     45 H17         -0.7580    -2.4750    -0.5750 hn         1 OQQ       0.498000
     46 O           -5.6510    -2.6980     0.2070 o          1 OQQ      -0.571100
@<TRIPOS>BOND
     1     1     2 1   
     2     1     4 1   
     3     1    29 1   
     4     2    24 1   
     5     2    28 2   
     6     3    13 ar  
     7     3    14 ar  
     8     3    24 1   
     9     4    30 1   
    10     4    31 1   
    11     4    32 1   
    12     5     6 1   
    13     5    20 1   
    14     5    33 1   
    15     5    34 1   
    16     6     7 ar  
    17     6    12 ar  
    18     7     8 ar  
    19     7    35 1   
    20     8     9 ar  
    21     8    36 1   
    22     9    10 1   
    23     9    11 ar  
    24    10    21 1   
    25    10    22 1   
    26    10    23 1   
    27    11    12 ar  
    28    11    37 1   
    29    12    38 1   
    30    13    19 ar  
    31    13    28 1   
    32    14    15 ar  
    33    14    39 1   
    34    15    16 1   
    35    15    18 ar  
    36    16    25 1   
    37    16    46 2   
    38    17    25 2   
    39    17    26 1   
    40    17    27 1   
    41    18    19 ar  
    42    18    27 1   
    43    19    20 1   
    44    20    40 1   
    45    20    41 1   
    46    24    42 1   
    47    26    43 1   
    48    26    44 1   
    49    27    45 1   
@<TRIPOS>SUBSTRUCTURE
     1 OQQ         1 TEMP              0 ****  ****    0 ROOT
