@<TRIPOS>MOLECULE
OQR
   41    42     1     0     0
SMALL
No Charge or Current Charge


@<TRIPOS>ATOM
      1 C8           1.4940     2.4700    -0.3230 c6         1 OQR      -0.085400
      2 C9           0.0520     2.7180     0.1930 c6         1 OQR      -0.026100
      3 C6          -0.8270     1.4610     0.0910 ca         1 OQR      -0.121300
      4 C1          -2.2280     1.5800     0.1280 ca         1 OQR      -0.060000
      5 C2          -3.0630     0.4420     0.0400 ca         1 OQR      -0.073300
      6 C10         -4.5910     0.6290     0.0490 c3         1 OQR       0.215900
      7 O3          -4.9830     1.8460    -0.6030 oh         1 OQR      -0.669000
      8 C3          -2.4610    -0.8460    -0.0530 ca         1 OQR      -0.123200
      9 N2          -3.2720    -2.1040    -0.0940 no         1 OQR       0.688200
     10 O1          -2.8880    -3.0120    -0.8430 o          1 OQR      -0.406500
     11 O2          -4.1730    -2.2430     0.7440 o          1 OQR      -0.406500
     12 C4          -1.0500    -0.9530    -0.0950 ca         1 OQR      -0.146000
     13 C5          -0.2390     0.1860    -0.0220 ca         1 OQR       0.328000
     14 N1           1.1500     0.0610    -0.0610 nu         1 OQR      -0.945200
     15 C7           2.0740     1.1600     0.2640 c6         1 OQR       0.227500
     16 C11          3.5210     0.8510    -0.2600 c3         1 OQR       0.154800
     17 N3           4.0470    -0.4680     0.1990 n7         1 OQR      -0.884400
     18 C14          5.3660    -0.8750    -0.3200 c3         1 OQR       0.176500
     19 C12          6.4870    -0.0200     0.3110 c3         1 OQR      -0.108100
     20 C13          5.5620    -2.3750    -0.0300 c3         1 OQR      -0.108100
     21 H1           1.4830     2.4090    -1.4200 hc         1 OQR       0.054700
     22 H2           2.1370     3.3210    -0.0610 hc         1 OQR       0.054700
     23 H3           0.0920     3.0400     1.2420 hc         1 OQR       0.055200
     24 H4          -0.4010     3.5460    -0.3690 hc         1 OQR       0.055200
     25 H5          -2.6690     2.5700     0.2210 ha         1 OQR       0.138000
     26 H6          -5.0720    -0.2160    -0.4600 h1         1 OQR       0.046700
     27 H7          -4.9380     0.6250     1.0920 h1         1 OQR       0.046700
     28 H8          -5.9650     1.8880    -0.5580 ho         1 OQR       0.451000
     29 H9          -0.5800    -1.9300    -0.1700 ha         1 OQR       0.147000
     30 H10          1.5490    -0.8780    -0.1250 hn         1 OQR       0.502000
     31 H11          2.1280     1.2730     1.3580 h1         1 OQR       0.032700
     32 H12          3.4960     0.8800    -1.3580 h1         1 OQR       0.042700
     33 H13          4.1760     1.6680     0.0730 h1         1 OQR       0.042700
     34 H14          4.0850    -0.4720     1.2250 hn         1 OQR       0.410000
     35 H16          5.4000    -0.7410    -1.4110 h1         1 OQR       0.059700
     36 H17          7.4690    -0.3660    -0.0340 hc         1 OQR       0.038867
     37 H18          6.3910     1.0340     0.0260 hc         1 OQR       0.038867
     38 H19          6.4670    -0.0880     1.4050 hc         1 OQR       0.038867
     39 H20          4.7680    -2.9670    -0.5010 hc         1 OQR       0.038867
     40 H21          6.5220    -2.7210    -0.4310 hc         1 OQR       0.038867
     41 H22          5.5500    -2.5740     1.0480 hc         1 OQR       0.038867
@<TRIPOS>BOND
     1     1     2 1   
     2     1    15 1   
     3     1    21 1   
     4     1    22 1   
     5     2     3 1   
     6     2    23 1   
     7     2    24 1   
     8     3     4 ar  
     9     3    13 ar  
    10     4     5 ar  
    11     4    25 1   
    12     5     6 1   
    13     5     8 ar  
    14     6     7 1   
    15     6    26 1   
    16     6    27 1   
    17     7    28 1   
    18     8     9 1   
    19     8    12 ar  
    20     9    10 1   
    21     9    11 1   
    22    12    13 ar  
    23    12    29 1   
    24    13    14 1   
    25    14    15 1   
    26    14    30 1   
    27    15    16 1   
    28    15    31 1   
    29    16    17 1   
    30    16    32 1   
    31    16    33 1   
    32    17    18 1   
    33    17    34 1   
    34    18    19 1   
    35    18    20 1   
    36    18    35 1   
    37    19    36 1   
    38    19    37 1   
    39    19    38 1   
    40    20    39 1   
    41    20    40 1   
    42    20    41 1   
@<TRIPOS>SUBSTRUCTURE
     1 OQR         1 TEMP              0 ****  ****    0 ROOT
