@<TRIPOS>MOLECULE
OQR
   41    42     1     0     0
SMALL
abcg2


@<TRIPOS>ATOM
      1 C8           1.4960     2.4670    -0.2070 c6         1 OQR      -0.085400
      2 C9           0.0580     2.6690     0.2580 c6         1 OQR      -0.026100
      3 C6          -0.7740     1.4270     0.0910 ca         1 OQR      -0.121300
      4 C1          -2.1580     1.4960     0.0760 ca         1 OQR      -0.060000
      5 C2          -2.9910     0.3850    -0.0340 ca         1 OQR      -0.073300
      6 C10         -4.4900     0.5730    -0.0500 c3         1 OQR       0.215900
      7 O3          -4.7800     1.9340    -0.2560 oh         1 OQR      -0.669000
      8 C3          -2.3290    -0.8410    -0.1550 ca         1 OQR      -0.123200
      9 N2          -3.0700    -2.0850    -0.2660 no         1 OQR       0.688200
     10 O1          -2.5330    -3.0310    -0.7950 o          1 OQR      -0.406500
     11 O2          -4.1920    -2.1270     0.1890 o          1 OQR      -0.406500
     12 C4          -0.9470    -0.9540    -0.1700 ca         1 OQR      -0.146000
     13 C5          -0.1430     0.1760    -0.0400 ca         1 OQR       0.328000
     14 N1           1.2180     0.0750    -0.0730 nu         1 OQR      -0.945200
     15 C7           2.0560     1.1710     0.3560 c6         1 OQR       0.227500
     16 C11          3.4810     0.9030    -0.1050 c3         1 OQR       0.154800
     17 N3           3.9380    -0.3810     0.3900 n7         1 OQR      -0.884400
     18 C14          5.1190    -0.9200    -0.2730 c3         1 OQR       0.176500
     19 C12          6.3590    -0.0360    -0.1500 c3         1 OQR      -0.108100
     20 C13          5.3930    -2.3190     0.2590 c3         1 OQR      -0.108100
     21 H1           1.5400     2.4340    -1.3000 hc         1 OQR       0.054700
     22 H2           2.1110     3.3080     0.1160 hc         1 OQR       0.054700
     23 H3           0.0570     2.9560     1.3150 hc         1 OQR       0.055200
     24 H4          -0.4040     3.5000    -0.2790 hc         1 OQR       0.055200
     25 H5          -2.6080     2.4760     0.1580 ha         1 OQR       0.138000
     26 H6          -4.9370    -0.0430    -0.8380 h1         1 OQR       0.046700
     27 H7          -4.9110     0.2220     0.8990 h1         1 OQR       0.046700
     28 H8          -5.7300     2.0460    -0.1620 ho         1 OQR       0.451000
     29 H9          -0.4820    -1.9250    -0.2710 ha         1 OQR       0.147000
     30 H10          1.6250    -0.8380     0.0720 hn         1 OQR       0.502000
     31 H11          2.0610     1.2510     1.4560 h1         1 OQR       0.032700
     32 H12          3.5010     0.8740    -1.1990 h1         1 OQR       0.042700
     33 H13          4.1110     1.7490     0.2020 h1         1 OQR       0.042700
     34 H14          4.1150    -0.3140     1.3870 hn         1 OQR       0.410000
     35 H16          4.8650    -1.0040    -1.3360 h1         1 OQR       0.059700
     36 H17          7.2080    -0.4740    -0.6790 hc         1 OQR       0.038867
     37 H18          6.1910     0.9580    -0.5670 hc         1 OQR       0.038867
     38 H19          6.6450     0.0840     0.8970 hc         1 OQR       0.038867
     39 H20          4.5180    -2.9600     0.1450 hc         1 OQR       0.038867
     40 H21          6.2250    -2.7810    -0.2730 hc         1 OQR       0.038867
     41 H22          5.6560    -2.2920     1.3190 hc         1 OQR       0.038867
@<TRIPOS>BOND
     1     1     2 1   
     2     1    15 1   
     3     1    21 1   
     4     1    22 1   
     5     2     3 1   
     6     2    23 1   
     7     2    24 1   
     8     3     4 ar  
     9     3    13 ar  
    10     4     5 ar  
    11     4    25 1   
    12     5     6 1   
    13     5     8 ar  
    14     6     7 1   
    15     6    26 1   
    16     6    27 1   
    17     7    28 1   
    18     8     9 1   
    19     8    12 ar  
    20     9    10 1   
    21     9    11 1   
    22    12    13 ar  
    23    12    29 1   
    24    13    14 1   
    25    14    15 1   
    26    14    30 1   
    27    15    16 1   
    28    15    31 1   
    29    16    17 1   
    30    16    32 1   
    31    16    33 1   
    32    17    18 1   
    33    17    34 1   
    34    18    19 1   
    35    18    20 1   
    36    18    35 1   
    37    19    36 1   
    38    19    37 1   
    39    19    38 1   
    40    20    39 1   
    41    20    40 1   
    42    20    41 1   
@<TRIPOS>SUBSTRUCTURE
     1 OQR         1 TEMP              0 ****  ****    0 ROOT
