@<TRIPOS>MOLECULE
OQS
   48    51     1     0     0
SMALL
No Charge or Current Charge


@<TRIPOS>ATOM
      1 C4          -5.9260     1.4020    -0.3570 ca         1 OQS      -0.054000
      2 C14          5.8740     2.9610     0.1520 c3         1 OQS       0.359300
      3 C5          -5.4330     0.0850    -0.4390 ca         1 OQS      -0.028200
      4 C6          -3.1060    -0.4140    -2.9510 cc         1 OQS       0.322900
      5 C11          4.3810    -0.5980     0.2470 ca         1 OQS      -0.026000
      6 C7          -2.3620    -0.7920    -1.8180 cc         1 OQS      -0.324600
      7 C8          -0.9920    -1.2350    -1.7500 c          1 OQS       0.622600
      8 C10          1.8320    -0.8350    -0.0550 c          1 OQS       0.601100
      9 C12          4.5100     0.8070     0.1330 ca         1 OQS      -0.059000
     10 C13          5.7650     1.4370     0.2890 ca         1 OQS      -0.175300
     11 N1          -4.3800    -0.2120    -1.3050 na         1 OQS       0.243000
     12 N2          -4.3500    -0.0380    -2.6820 nd         1 OQS      -0.501800
     13 C3          -6.9940     1.7040     0.5070 ca         1 OQS      -0.168500
     14 N3          -0.6000    -1.5180    -0.4410 n          1 OQS      -0.327300
     15 C1          -9.2930     0.1050     2.9680 c3         1 OQS       0.147900
     16 C2          -7.5800     0.6990     1.2930 ca         1 OQS       0.149100
     17 O2          -0.2590    -1.3490    -2.7220 o          1 OQS      -0.529000
     18 O3           1.5060     0.3470    -0.0650 o          1 OQS      -0.552100
     19 N4           3.1380    -1.2820     0.0990 ns         1 OQS      -0.149000
     20 F1           5.8510     3.3390    -1.1460 f          1 OQS      -0.109333
     21 F2           4.8510     3.5980     0.7670 f          1 OQS      -0.109333
     22 F3           7.0140     3.4570     0.6870 f          1 OQS      -0.109333
     23 C15          6.9050     0.6460     0.5470 ca         1 OQS      -0.070000
     24 C16          6.7860    -0.7480     0.6560 ca         1 OQS      -0.091000
     25 C17          5.5360    -1.3660     0.5080 ca         1 OQS       0.098000
     26 Cl1          5.4360    -3.1220     0.6530 cl         1 OQS      -0.194000
     27 C18         -1.4840    -1.3380     0.6260 cc         1 OQS       0.531800
     28 N5          -2.7580    -0.9250     0.5430 nd         1 OQS      -0.611100
     29 C19         -3.1730    -0.6570    -0.7550 cd         1 OQS       0.142400
     30 C20         -6.0240    -0.9260     0.3450 ca         1 OQS      -0.054000
     31 C21         -7.0920    -0.6230     1.2100 ca         1 OQS      -0.168500
     32 H1          -5.4820     2.1890    -0.9630 ha         1 OQS       0.134500
     33 H2          -2.7670    -0.3940    -3.9790 h4         1 OQS       0.055100
     34 H3           1.1290    -2.6270    -1.0100 h1         1 OQS       0.080700
     35 H4           0.8380    -2.5650     0.7290 h1         1 OQS       0.080700
     36 H5           3.6460     1.4270    -0.0850 ha         1 OQS       0.161000
     37 H6          -7.3690     2.7220     0.5680 ha         1 OQS       0.128000
     38 H7         -10.0880     0.5980     3.5410 h1         1 OQS       0.042700
     39 H8          -9.7510    -0.6940     2.3700 h1         1 OQS       0.042700
     40 H9          -8.5910    -0.3460     3.6800 h1         1 OQS       0.042700
     41 H10          3.2300    -2.2900     0.1070 hn         1 OQS       0.166000
     42 H11          7.8870     1.1020     0.6590 ha         1 OQS       0.139000
     43 H12          7.6680    -1.3520     0.8540 ha         1 OQS       0.138000
     44 H13         -1.0610    -1.5700     1.5950 h5         1 OQS       0.050800
     45 H14         -5.6540    -1.9480     0.2850 ha         1 OQS       0.134500
     46 H15         -7.5250    -1.4240     1.8020 ha         1 OQS       0.128000
     47 O1          -8.6240     1.0570     2.1220 os         1 OQS      -0.338100
     48 C9           0.8000    -1.9720    -0.1930 c3         1 OQS       0.007000
@<TRIPOS>BOND
     1     1     3 ar  
     2     1    13 ar  
     3     1    32 1   
     4     2    10 1   
     5     2    20 1   
     6     2    21 1   
     7     2    22 1   
     8     3    11 1   
     9     3    30 ar  
    10     4     6 1   
    11     4    12 2   
    12     4    33 1   
    13     5     9 ar  
    14     5    19 1   
    15     5    25 ar  
    16     6     7 1   
    17     6    29 2   
    18     7    14 1   
    19     7    17 2   
    20     8    18 2   
    21     8    19 1   
    22     8    48 1   
    23     9    10 ar  
    24     9    36 1   
    25    10    23 ar  
    26    11    12 1   
    27    11    29 1   
    28    13    16 ar  
    29    13    37 1   
    30    14    27 1   
    31    14    48 1   
    32    15    38 1   
    33    15    39 1   
    34    15    40 1   
    35    15    47 1   
    36    16    31 ar  
    37    16    47 1   
    38    19    41 1   
    39    23    24 ar  
    40    23    42 1   
    41    24    25 ar  
    42    24    43 1   
    43    25    26 1   
    44    27    28 2   
    45    27    44 1   
    46    28    29 1   
    47    30    31 ar  
    48    30    45 1   
    49    31    46 1   
    50    34    48 1   
    51    35    48 1   
@<TRIPOS>SUBSTRUCTURE
     1 OQS         1 TEMP              0 ****  ****    0 ROOT
