@<TRIPOS>MOLECULE
OQS
   48    51     1     0     0
SMALL
bcc


@<TRIPOS>ATOM
      1 C4          -5.8970     1.4620    -0.3330 ca         1 OQS      -0.072000
      2 C14          5.5010     2.8040    -0.2470 c3         1 OQS       0.723200
      3 C5          -5.2380     0.2380    -0.2660 ca         1 OQS      -0.028200
      4 C6          -2.7550     0.2340    -2.6950 cc         1 OQS       0.388200
      5 C11          4.2410    -0.7270     0.1150 ca         1 OQS       0.066600
      6 C7          -2.0350    -0.4610    -1.7030 cc         1 OQS      -0.389900
      7 C8          -0.7190    -0.9990    -1.5830 c          1 OQS       0.765100
      8 C10          1.8130    -1.0560     0.0850 c          1 OQS       0.668100
      9 C12          4.3150     0.6290    -0.1830 ca         1 OQS      -0.077000
     10 C13          5.4850     1.3380     0.0570 ca         1 OQS      -0.175300
     11 N1          -4.0560     0.0430    -1.0140 na         1 OQS       0.192300
     12 N2          -3.9580     0.5250    -2.2690 nd         1 OQS      -0.501800
     13 C3          -7.0540     1.6640     0.3910 ca         1 OQS      -0.186500
     14 N3          -0.5230    -1.6030    -0.3280 n          1 OQS      -0.394300
     15 C1          -9.2380    -0.0420     2.7400 c3         1 OQS       0.124700
     16 C2          -7.5660     0.6510     1.2060 ca         1 OQS       0.149100
     17 O2           0.1760    -0.9850    -2.4060 o          1 OQS      -0.604500
     18 O3           1.5000     0.0670     0.4130 o          1 OQS      -0.552100
     19 N4           3.0860    -1.4760    -0.1200 ns         1 OQS      -0.475100
     20 F1           5.0160     3.0640    -1.4690 f          1 OQS      -0.230633
     21 F2           4.7430     3.4940     0.6180 f          1 OQS      -0.230633
     22 F3           6.7290     3.3220    -0.1930 f          1 OQS      -0.230633
     23 C15          6.6020     0.7060     0.5810 ca         1 OQS      -0.088000
     24 C16          6.5460    -0.6490     0.8620 ca         1 OQS      -0.109000
     25 C17          5.3770    -1.3520     0.6400 ca         1 OQS       0.006400
     26 CL1          5.3250    -3.0350     1.0240 cl         1 OQS      -0.102400
     27 C18         -1.4580    -1.5990     0.6580 cc         1 OQS       0.531800
     28 N5          -2.6470    -1.1090     0.5710 nd         1 OQS      -0.611100
     29 C19         -2.9100    -0.5540    -0.6310 cd         1 OQS       0.193100
     30 C20         -5.7480    -0.7770     0.5270 ca         1 OQS      -0.072000
     31 C21         -6.9040    -0.5720     1.2700 ca         1 OQS      -0.186500
     32 H1          -5.5040     2.2580    -0.9510 ha         1 OQS       0.152500
     33 H2          -2.4400     0.5170    -3.6870 h4         1 OQS       0.055100
     34 H3           1.0540    -2.8590    -0.8700 h1         1 OQS       0.080700
     35 H4           0.7490    -2.7360     0.8530 h1         1 OQS       0.080700
     36 H5           3.4590     1.1190    -0.6210 ha         1 OQS       0.179000
     37 H6          -7.5630     2.6180     0.3410 ha         1 OQS       0.146000
     38 H7         -10.1220     0.4010     3.1900 h1         1 OQS       0.042700
     39 H8          -9.5340    -0.9420     2.1950 h1         1 OQS       0.042700
     40 H9          -8.5410    -0.3220     3.5340 h1         1 OQS       0.042700
     41 H10          3.2200    -2.4500    -0.3530 hn         1 OQS       0.332500
     42 H11          7.5200     1.2420     0.7740 ha         1 OQS       0.157000
     43 H12          7.4120    -1.1550     1.2640 ha         1 OQS       0.156000
     44 H13         -1.1510    -2.0650     1.5860 h5         1 OQS       0.050800
     45 H14         -5.2600    -1.7400     0.5710 ha         1 OQS       0.152500
     46 H15         -7.2740    -1.3850     1.8790 ha         1 OQS       0.146000
     47 O1          -8.6910     0.9410     1.8810 os         1 OQS      -0.314900
     48 C9           0.7830    -2.1630    -0.0760 c3         1 OQS       0.007000
@<TRIPOS>BOND
     1     1     3 ar  
     2     1    13 ar  
     3     1    32 1   
     4     2    10 1   
     5     2    20 1   
     6     2    21 1   
     7     2    22 1   
     8     3    11 1   
     9     3    30 ar  
    10     4     6 1   
    11     4    12 2   
    12     4    33 1   
    13     5     9 ar  
    14     5    19 1   
    15     5    25 ar  
    16     6     7 1   
    17     6    29 2   
    18     7    14 1   
    19     7    17 2   
    20     8    18 2   
    21     8    19 1   
    22     8    48 1   
    23     9    10 ar  
    24     9    36 1   
    25    10    23 ar  
    26    11    12 1   
    27    11    29 1   
    28    13    16 ar  
    29    13    37 1   
    30    14    27 1   
    31    14    48 1   
    32    15    38 1   
    33    15    39 1   
    34    15    40 1   
    35    15    47 1   
    36    16    31 ar  
    37    16    47 1   
    38    19    41 1   
    39    23    24 ar  
    40    23    42 1   
    41    24    25 ar  
    42    24    43 1   
    43    25    26 1   
    44    27    28 2   
    45    27    44 1   
    46    28    29 1   
    47    30    31 ar  
    48    30    45 1   
    49    31    46 1   
    50    34    48 1   
    51    35    48 1   
@<TRIPOS>SUBSTRUCTURE
     1 OQS         1 TEMP              0 ****  ****    0 ROOT
