@<TRIPOS>MOLECULE
OQT
   37    39     1     0     0
SMALL
bcc


@<TRIPOS>ATOM
      1 O24         -3.4630     0.8700    13.7020 o          1 OQT      -0.595300
      2 S2          -3.6150     1.2140    15.1060 sy         1 OQT       1.300200
      3 O1          -2.5020     1.8090    15.8150 o          1 OQT      -0.595300
      4 N3          -4.0010    -0.1790    15.8670 n8         1 OQT      -0.897700
      5 C4          -5.0020     2.3420    15.2680 ca         1 OQT      -0.373500
      6 C12         -5.6990     2.8910    14.1720 ca         1 OQT       0.224600
      7 C10         -6.7040     3.8150    14.4950 ca         1 OQT       0.096900
      8 F11         -7.4290     4.3310    13.4960 f          1 OQT      -0.127900
      9 C9          -7.0130     4.2020    15.7730 ca         1 OQT      -0.125000
     10 C7          -6.3210     3.6310    16.8230 ca         1 OQT       0.081900
     11 F8          -6.6200     3.9590    18.0790 f          1 OQT      -0.116900
     12 C5          -5.3350     2.7090    16.5700 ca         1 OQT       0.167900
     13 F6          -4.6990     2.1550    17.6030 f          1 OQT      -0.122900
     14 N13         -5.5070     2.5450    12.8500 nu         1 OQT      -0.714600
     15 C14         -5.0770     3.5710    11.8780 c6         1 OQT       0.292000
     16 C23         -3.6870     4.0410    12.1790 c2         1 OQT      -0.228200
     17 C22         -2.6450     3.8320    11.3840 c2         1 OQT      -0.113200
     18 C21         -2.7350     3.1420    10.0680 c6         1 OQT      -0.010900
     19 C20         -4.1310     2.7590     9.6660 ca         1 OQT      -0.050300
     20 C15         -5.2250     2.9810    10.4960 ca         1 OQT      -0.088300
     21 C19         -4.3400     2.1780     8.4130 ca         1 OQT      -0.135000
     22 C18         -5.6080     1.8270     7.9880 ca         1 OQT      -0.114000
     23 C17         -6.7020     2.0590     8.8170 ca         1 OQT      -0.137000
     24 C16         -6.5030     2.6280    10.0610 ca         1 OQT      -0.099000
     25 H1          -4.0670    -0.1220    16.8770 hn         1 OQT       0.433800
     26 H2          -4.7850    -0.6750    15.4590 hn         1 OQT       0.433800
     27 H3          -7.8090     4.9130    15.9570 ha         1 OQT       0.174000
     28 H4          -4.9090     1.7340    12.7600 hn         1 OQT       0.433800
     29 H5          -5.7580     4.4210    11.9550 h1         1 OQT       0.081700
     30 H6          -3.5490     4.5560    13.1240 ha         1 OQT       0.129000
     31 H7          -1.6630     4.1780    11.6870 ha         1 OQT       0.131000
     32 H8          -2.0970     2.2510    10.0810 hc         1 OQT       0.066200
     33 H9          -2.2970     3.7830     9.2940 hc         1 OQT       0.066200
     34 H10         -3.4890     2.0010     7.7660 ha         1 OQT       0.130000
     35 H11         -5.7470     1.3770     7.0130 ha         1 OQT       0.131000
     36 H12         -7.7010     1.7980     8.4920 ha         1 OQT       0.132000
     37 H13         -7.3500     2.8040    10.7140 ha         1 OQT       0.139000
@<TRIPOS>BOND
     1     1     2 2   
     2     2     3 2   
     3     2     4 1   
     4     2     5 1   
     5     4    25 1   
     6     4    26 1   
     7     5     6 ar  
     8     5    12 ar  
     9     6     7 ar  
    10     6    14 1   
    11     7     8 1   
    12     7     9 ar  
    13     9    10 ar  
    14     9    27 1   
    15    10    11 1   
    16    10    12 ar  
    17    12    13 1   
    18    14    15 1   
    19    14    28 1   
    20    15    16 1   
    21    15    20 1   
    22    15    29 1   
    23    16    17 2   
    24    16    30 1   
    25    17    18 1   
    26    17    31 1   
    27    18    19 1   
    28    18    32 1   
    29    18    33 1   
    30    19    20 ar  
    31    19    21 ar  
    32    20    24 ar  
    33    21    22 ar  
    34    21    34 1   
    35    22    23 ar  
    36    22    35 1   
    37    23    24 ar  
    38    23    36 1   
    39    24    37 1   
@<TRIPOS>SUBSTRUCTURE
     1 OQT         1 TEMP              0 ****  ****    0 ROOT
