@<TRIPOS>MOLECULE
OQT
   37    39     1     0     0
SMALL
No Charge or Current Charge


@<TRIPOS>ATOM
      1 O24         -3.8710     0.7250    13.3760 o          1 OQT      -0.524500
      2 S2          -3.7850     1.1630    14.7660 sy         1 OQT       1.158600
      3 O1          -2.5070     1.4970    15.3880 o          1 OQT      -0.524500
      4 N3          -4.2740    -0.1410    15.6080 n8         1 OQT      -1.008100
      5 C4          -5.0250     2.3900    15.1700 ca         1 OQT      -0.373500
      6 C12         -5.8600     2.9940    14.1980 ca         1 OQT       0.363000
      7 C10         -6.8390     3.9440    14.6170 ca         1 OQT       0.132000
      8 F11         -7.6890     4.5150    13.7280 f          1 OQT      -0.163000
      9 C9          -6.9630     4.3070    15.9640 ca         1 OQT      -0.107000
     10 C7          -6.1160     3.7310    16.9140 ca         1 OQT       0.117000
     11 F8          -6.2350     4.0900    18.2130 f          1 OQT      -0.152000
     12 C5          -5.1550     2.7800    16.5240 ca         1 OQT       0.203000
     13 F6          -4.3590     2.2460    17.4810 f          1 OQT      -0.158000
     14 N13         -5.7260     2.6720    12.8410 nu         1 OQT      -0.908200
     15 C14         -5.4750     3.6650    11.7980 c6         1 OQT       0.292000
     16 C23         -4.2120     4.3990    12.2030 c2         1 OQT      -0.278200
     17 C22         -3.0000     4.1010    11.7100 c2         1 OQT      -0.163200
     18 C21         -2.7850     3.0150    10.6700 c6         1 OQT      -0.010900
     19 C20         -4.0660     2.6280     9.9220 ca         1 OQT      -0.050300
     20 C15         -5.3390     2.9450    10.4530 ca         1 OQT      -0.088300
     21 C19         -3.9730     1.9520     8.6900 ca         1 OQT      -0.117000
     22 C18         -5.1350     1.5930     7.9870 ca         1 OQT      -0.096000
     23 C17         -6.3980     1.9070     8.5130 ca         1 OQT      -0.119000
     24 C16         -6.4990     2.5790     9.7420 ca         1 OQT      -0.081000
     25 H1          -4.1670    -0.8650    14.9010 hn         1 OQT       0.489000
     26 H2          -3.4550    -0.2920    16.1920 hn         1 OQT       0.489000
     27 H3          -7.7120     5.0330    16.2680 ha         1 OQT       0.156000
     28 H4          -5.1890     1.8160    12.6960 hn         1 OQT       0.489000
     29 H5          -6.3020     4.3880    11.7210 h1         1 OQT       0.081700
     30 H6          -4.3360     5.1970    12.9360 ha         1 OQT       0.179000
     31 H7          -2.1120     4.6510    12.0320 ha         1 OQT       0.181000
     32 H8          -2.3540     2.1270    11.1520 hc         1 OQT       0.066200
     33 H9          -2.0370     3.3650     9.9440 hc         1 OQT       0.066200
     34 H10         -2.9980     1.7040     8.2770 ha         1 OQT       0.112000
     35 H11         -5.0550     1.0710     7.0350 ha         1 OQT       0.113000
     36 H12         -7.2980     1.6270     7.9700 ha         1 OQT       0.114000
     37 H13         -7.4810     2.8130    10.1480 ha         1 OQT       0.121000
@<TRIPOS>BOND
     1     1     2 2   
     2     2     3 2   
     3     2     4 1   
     4     2     5 1   
     5     4    25 1   
     6     4    26 1   
     7     5     6 ar  
     8     5    12 ar  
     9     6     7 ar  
    10     6    14 1   
    11     7     8 1   
    12     7     9 ar  
    13     9    10 ar  
    14     9    27 1   
    15    10    11 1   
    16    10    12 ar  
    17    12    13 1   
    18    14    15 1   
    19    14    28 1   
    20    15    16 1   
    21    15    20 1   
    22    15    29 1   
    23    16    17 2   
    24    16    30 1   
    25    17    18 1   
    26    17    31 1   
    27    18    19 1   
    28    18    32 1   
    29    18    33 1   
    30    19    20 ar  
    31    19    21 ar  
    32    20    24 ar  
    33    21    22 ar  
    34    21    34 1   
    35    22    23 ar  
    36    22    35 1   
    37    23    24 ar  
    38    23    36 1   
    39    24    37 1   
@<TRIPOS>SUBSTRUCTURE
     1 OQT         1 TEMP              0 ****  ****    0 ROOT
