@<TRIPOS>MOLECULE
OQV
   89    92     1     0     0
SMALL
No Charge or Current Charge


@<TRIPOS>ATOM
      1 C13         69.8160    59.5040    17.9930 ca         1 OQV      -0.086300
      2 C15         69.4870    60.7060    20.0940 ca         1 OQV      -0.110000
      3 C17         69.5890    58.2770    20.0930 ca         1 OQV      -0.110000
      4 C21         69.8540    54.1110    14.5460 c3         1 OQV       0.053700
      5 C28         74.0900    54.2570    14.2730 ca         1 OQV      -0.086300
      6 C02         72.8440    56.5790    14.5290 c3         1 OQV       0.098700
      7 C04         74.0560    55.7700    13.9430 c3         1 OQV      -0.045100
      8 C05         71.5520    58.8540    14.4880 c3         1 OQV       0.166300
      9 C06         71.3740    58.9100    16.0390 c3         1 OQV       0.090700
     10 C11         70.0150    59.5120    16.4790 c3         1 OQV      -0.049100
     11 C14         69.6740    60.7150    18.7000 ca         1 OQV      -0.099500
     12 C16         69.4470    59.4880    20.7910 ca         1 OQV      -0.110000
     13 C18         69.7700    58.2840    18.6990 ca         1 OQV      -0.099500
     14 C25         68.4110    54.7300    14.6650 c3         1 OQV      -0.047000
     15 C27         67.9770    54.8780    16.1510 c3         1 OQV      -0.087767
     16 C29         73.5590    53.3190    13.3660 ca         1 OQV      -0.097500
     17 C30         73.5380    51.9510    13.6900 ca         1 OQV      -0.108500
     18 C31         74.0500    51.5130    14.9230 ca         1 OQV      -0.107000
     19 C32         74.5830    52.4440    15.8300 ca         1 OQV      -0.108500
     20 C33         74.6010    53.8130    15.5080 ca         1 OQV      -0.097500
     21 C34         67.3860    53.8170    13.9350 c3         1 OQV      -0.087767
     22 C35         75.1040    59.6580    19.0990 c5         1 OQV       0.162300
     23 C36         76.2910    60.6570    19.0480 c5         1 OQV       0.152600
     24 C38         75.1690    61.2840    20.9680 c5         1 OQV       0.372300
     25 C39         74.5490    59.9040    20.5630 c5         1 OQV      -0.146700
     26 C41         72.9520    61.7110    20.4500 c5         1 OQV       0.152600
     27 C42         73.0030    60.1770    20.6350 c5         1 OQV      -0.098400
     28 C43         70.1840    49.2340    14.8910 c3         1 OQV       0.170900
     29 C44         68.3660    56.1310    13.9960 c3         1 OQV      -0.087767
     30 N01         71.5930    55.8620    14.2550 ns         1 OQV      -0.500900
     31 N07         72.4840    59.6180    16.6920 ns         1 OQV      -0.490900
     32 N22         69.9420    52.7740    15.1750 ns         1 OQV      -0.488900
     33 O09         74.1680    60.0590    18.0550 os         1 OQV      -0.453100
     34 O10         71.6640    60.1820    13.9470 oh         1 OQV      -0.663000
     35 O24         70.1130    50.5770    15.4010 os         1 OQV      -0.452100
     36 O26         69.8550    51.4600    13.2920 o          1 OQV      -0.553000
     37 O37         75.8160    61.7940    19.7900 os         1 OQV      -0.458000
     38 O40         74.0530    62.1440    21.2680 os         1 OQV      -0.442000
     39 H151        69.3760    61.6450    20.6330 ha         1 OQV       0.114000
     40 H171        69.5580    57.3320    20.6310 ha         1 OQV       0.114000
     41 H211        70.0920    54.0010    13.4800 h1         1 OQV       0.081700
     42 H021        72.9910    56.6100    15.6180 h1         1 OQV       0.106700
     43 H042        74.9840    56.2400    14.2910 hc         1 OQV       0.051200
     44 H041        74.0580    55.8950    12.8530 hc         1 OQV       0.051200
     45 H051        70.6630    58.3690    14.0640 h1         1 OQV       0.037700
     46 H061        71.3710    57.8730    16.3990 h1         1 OQV       0.104700
     47 H111        69.9300    60.5350    16.0940 hc         1 OQV       0.049200
     48 H112        69.2050    58.9420    16.0070 hc         1 OQV       0.049200
     49 H141        69.7060    61.6650    18.1720 ha         1 OQV       0.114000
     50 H161        69.3060    59.4810    21.8700 ha         1 OQV       0.113000
     51 H181        69.8770    57.3410    18.1690 ha         1 OQV       0.114000
     52 H271        68.6520    55.5440    16.7000 hc         1 OQV       0.039144
     53 H272        66.9680    55.3020    16.2200 hc         1 OQV       0.039144
     54 H273        67.9640    53.9090    16.6630 hc         1 OQV       0.039144
     55 H291        73.1490    53.6500    12.4140 ha         1 OQV       0.112500
     56 H301        73.1200    51.2330    12.9880 ha         1 OQV       0.111500
     57 H311        74.0310    50.4550    15.1750 ha         1 OQV       0.110000
     58 H321        74.9750    52.1070    16.7870 ha         1 OQV       0.111500
     59 H331        75.0000    54.5290    16.2220 ha         1 OQV       0.112500
     60 H342        66.3840    54.2630    13.9470 hc         1 OQV       0.039144
     61 H343        67.6740    53.6650    12.8870 hc         1 OQV       0.039144
     62 H341        67.3130    52.8330    14.4130 hc         1 OQV       0.039144
     63 H351        75.4590    58.6310    18.9320 h1         1 OQV       0.084700
     64 H361        76.5580    60.9550    18.0250 h1         1 OQV       0.060200
     65 H362        77.1830    60.2480    19.5420 h1         1 OQV       0.060200
     66 H381        75.8720    61.2100    21.8100 h2         1 OQV       0.078700
     67 H391        74.8610    59.1060    21.2460 hc         1 OQV       0.076700
     68 H412        72.0140    62.1560    20.8070 h1         1 OQV       0.053200
     69 H411        73.1210    62.0170    19.4080 h1         1 OQV       0.053200
     70 H421        72.6130    59.9120    21.6240 hc         1 OQV       0.066700
     71 H422        72.3910    59.6290    19.9160 hc         1 OQV       0.066700
     72 H432        70.3100    48.5190    15.7130 h1         1 OQV       0.047033
     73 H431        69.2660    48.9720    14.3490 h1         1 OQV       0.047033
     74 H433        71.0360    49.1200    14.2080 h1         1 OQV       0.047033
     75 H443        68.9830    56.8520    14.5430 hc         1 OQV       0.039144
     76 H442        68.7230    56.0860    12.9600 hc         1 OQV       0.039144
     77 H441        67.3430    56.5250    13.9820 hc         1 OQV       0.039144
     78 H011        71.2500    55.8510    13.3020 hn         1 OQV       0.309500
     79 H071        72.6260    60.5970    16.4840 hn         1 OQV       0.333500
     80 H221        70.0790    52.7150    16.1750 hn         1 OQV       0.345500
     81 H101        70.7770    60.5980    14.0070 ho         1 OQV       0.444000
     82 C08         73.3380    59.0720    17.6050 c          1 OQV       0.636100
     83 C03         72.7910    58.0420    14.0250 c3         1 OQV      -0.085400
     84 C19         70.9770    55.0050    15.1490 c          1 OQV       0.584100
     85 O12         73.3410    57.9020    17.9530 o          1 OQV      -0.538000
     86 C23         69.9580    51.5870    14.5020 c          1 OQV       0.642100
     87 O20         71.3270    54.9320    16.3210 o          1 OQV      -0.589100
     88 H032        72.8080    58.0380    12.9290 hc         1 OQV       0.060200
     89 H031        73.7040    58.5580    14.3470 hc         1 OQV       0.060200
@<TRIPOS>BOND
     1     1    10 1   
     2     1    11 ar  
     3     1    13 ar  
     4     2    11 ar  
     5     2    12 ar  
     6     2    39 1   
     7     3    12 ar  
     8     3    13 ar  
     9     3    40 1   
    10     4    14 1   
    11     4    32 1   
    12     4    41 1   
    13     4    84 1   
    14     5     7 1   
    15     5    16 ar  
    16     5    20 ar  
    17     6     7 1   
    18     6    30 1   
    19     6    42 1   
    20     6    83 1   
    21     7    43 1   
    22     7    44 1   
    23     8     9 1   
    24     8    34 1   
    25     8    45 1   
    26     8    83 1   
    27     9    10 1   
    28     9    31 1   
    29     9    46 1   
    30    10    47 1   
    31    10    48 1   
    32    11    49 1   
    33    12    50 1   
    34    13    51 1   
    35    14    15 1   
    36    14    21 1   
    37    14    29 1   
    38    15    52 1   
    39    15    53 1   
    40    15    54 1   
    41    16    17 ar  
    42    16    55 1   
    43    17    18 ar  
    44    17    56 1   
    45    18    19 ar  
    46    18    57 1   
    47    19    20 ar  
    48    19    58 1   
    49    20    59 1   
    50    21    60 1   
    51    21    61 1   
    52    21    62 1   
    53    22    23 1   
    54    22    25 1   
    55    22    33 1   
    56    22    63 1   
    57    23    37 1   
    58    23    64 1   
    59    23    65 1   
    60    24    25 1   
    61    24    37 1   
    62    24    38 1   
    63    24    66 1   
    64    25    27 1   
    65    25    67 1   
    66    26    27 1   
    67    26    38 1   
    68    26    68 1   
    69    26    69 1   
    70    27    70 1   
    71    27    71 1   
    72    28    35 1   
    73    28    72 1   
    74    28    73 1   
    75    28    74 1   
    76    29    75 1   
    77    29    76 1   
    78    29    77 1   
    79    30    78 1   
    80    30    84 1   
    81    31    79 1   
    82    31    82 1   
    83    32    80 1   
    84    32    86 1   
    85    33    82 1   
    86    34    81 1   
    87    35    86 1   
    88    36    86 2   
    89    82    85 2   
    90    83    88 1   
    91    83    89 1   
    92    84    87 2   
@<TRIPOS>SUBSTRUCTURE
     1 OQV         1 TEMP              0 ****  ****    0 ROOT
