@<TRIPOS>MOLECULE
OQV
   89    92     1     0     0
SMALL
bcc


@<TRIPOS>ATOM
      1 C13         69.7380    59.5590    17.8590 ca         1 OQV      -0.086300
      2 C15         69.6580    60.6790    20.0020 ca         1 OQV      -0.128000
      3 C17         69.2250    58.3230    19.8760 ca         1 OQV      -0.128000
      4 C21         69.7300    54.2170    14.5570 c3         1 OQV       0.053700
      5 C28         74.1010    54.4650    14.6000 ca         1 OQV      -0.086300
      6 C02         72.7290    56.5720    14.5660 c3         1 OQV       0.098700
      7 C04         73.9710    55.8460    14.0260 c3         1 OQV      -0.045100
      8 C05         71.4220    58.7860    14.4480 c3         1 OQV       0.143100
      9 C06         71.2570    58.8630    15.9730 c3         1 OQV       0.090700
     10 C11         69.9650    59.5860    16.3740 c3         1 OQV      -0.049100
     11 C14         69.8580    60.7130    18.6270 ca         1 OQV      -0.117500
     12 C16         69.3430    59.4840    20.6310 ca         1 OQV      -0.128000
     13 C18         69.4190    58.3630    18.5030 ca         1 OQV      -0.117500
     14 C25         68.3030    54.7700    14.8230 c3         1 OQV      -0.047000
     15 C27         67.9130    54.7060    16.3000 c3         1 OQV      -0.087767
     16 C29         73.6350    53.3510    13.9060 ca         1 OQV      -0.115500
     17 C30         73.7010    52.0830    14.4690 ca         1 OQV      -0.126500
     18 C31         74.2320    51.9100    15.7390 ca         1 OQV      -0.125000
     19 C32         74.7030    53.0140    16.4400 ca         1 OQV      -0.126500
     20 C33         74.6380    54.2780    15.8730 ca         1 OQV      -0.115500
     21 C34         67.3170    53.9260    14.0140 c3         1 OQV      -0.087767
     22 C35         75.0580    59.3240    18.9090 c5         1 OQV       0.139100
     23 C36         76.3170    60.1510    18.7350 c5         1 OQV       0.129400
     24 C38         75.3610    61.0260    20.6160 c5         1 OQV       0.325900
     25 C39         74.6600    59.6710    20.3500 c5         1 OQV      -0.146700
     26 C41         73.1200    61.4860    20.4230 c5         1 OQV       0.129400
     27 C42         73.1940    59.9820    20.6410 c5         1 OQV      -0.098400
     28 C43         70.5710    49.5020    14.2880 c3         1 OQV       0.147700
     29 C44         68.2280    56.2190    14.3410 c3         1 OQV      -0.087767
     30 N01         71.5320    55.8130    14.2550 ns         1 OQV      -0.567900
     31 N07         72.4020    59.4970    16.5850 ns         1 OQV      -0.557900
     32 N22         69.9060    52.8750    15.0550 ns         1 OQV      -0.555900
     33 O09         74.1100    59.7780    17.9470 os         1 OQV      -0.429900
     34 O10         71.5530    60.0750    13.8800 oh         1 OQV      -0.600800
     35 O24         70.3300    50.7120    14.9940 os         1 OQV      -0.428900
     36 O26         70.2360    51.8430    13.0490 o          1 OQV      -0.602000
     37 O37         76.0760    61.3460    19.4460 os         1 OQV      -0.411600
     38 O40         74.3800    61.9740    20.8700 os         1 OQV      -0.395600
     39 H151        69.7520    61.5890    20.5810 ha         1 OQV       0.132000
     40 H171        68.9780    57.3850    20.3570 ha         1 OQV       0.132000
     41 H211        69.8500    54.1720    13.4730 h1         1 OQV       0.081700
     42 H021        72.8100    56.6040    15.6510 h1         1 OQV       0.106700
     43 H042        74.8500    56.4460    14.2770 hc         1 OQV       0.051200
     44 H041        73.9160    55.8020    12.9350 hc         1 OQV       0.051200
     45 H051        70.5290    58.2830    14.0570 h1         1 OQV       0.037700
     46 H061        71.1960    57.8450    16.3570 h1         1 OQV       0.104700
     47 H111        69.9920    60.6230    16.0290 hc         1 OQV       0.049200
     48 H112        69.1300    59.1020    15.8600 hc         1 OQV       0.049200
     49 H141        70.1050    61.6510    18.1430 ha         1 OQV       0.132000
     50 H161        69.1900    59.4550    21.7020 ha         1 OQV       0.131000
     51 H181        69.3210    57.4530    17.9210 ha         1 OQV       0.132000
     52 H271        68.5610    55.3170    16.9270 hc         1 OQV       0.039144
     53 H272        66.8920    55.0730    16.4230 hc         1 OQV       0.039144
     54 H273        67.9320    53.6840    16.6820 hc         1 OQV       0.039144
     55 H291        73.2180    53.4750    12.9140 ha         1 OQV       0.130500
     56 H301        73.3420    51.2280    13.9090 ha         1 OQV       0.129500
     57 H311        74.2840    50.9220    16.1790 ha         1 OQV       0.128000
     58 H321        75.1230    52.8890    17.4300 ha         1 OQV       0.129500
     59 H331        75.0030    55.1350    16.4290 ha         1 OQV       0.130500
     60 H342        66.3010    54.3040    14.1470 hc         1 OQV       0.039144
     61 H343        67.5450    53.9560    12.9460 hc         1 OQV       0.039144
     62 H341        67.3210    52.8820    14.3320 hc         1 OQV       0.039144
     63 H351        75.2480    58.2590    18.7760 h1         1 OQV       0.084700
     64 H361        76.5430    60.3870    17.6940 h1         1 OQV       0.060200
     65 H362        77.1700    59.6000    19.1520 h1         1 OQV       0.060200
     66 H381        76.0450    61.0100    21.4730 h2         1 OQV       0.078700
     67 H391        75.0470    58.8930    21.0090 hc         1 OQV       0.076700
     68 H412        72.3410    61.9690    21.0130 h1         1 OQV       0.053200
     69 H411        72.9470    61.7350    19.3710 h1         1 OQV       0.053200
     70 H421        72.9770    59.7470    21.6840 hc         1 OQV       0.066700
     71 H422        72.4790    59.4260    20.0380 hc         1 OQV       0.066700
     72 H432        70.6500    48.7270    15.0460 h1         1 OQV       0.047033
     73 H431        69.7520    49.2570    13.6120 h1         1 OQV       0.047033
     74 H433        71.5020    49.5400    13.7220 h1         1 OQV       0.047033
     75 H443        68.8380    56.8860    14.9520 hc         1 OQV       0.039144
     76 H442        68.5520    56.3210    13.3030 hc         1 OQV       0.039144
     77 H441        67.1990    56.5780    14.4020 hc         1 OQV       0.039144
     78 H011        71.3030    55.7120    13.2770 hn         1 OQV       0.309500
     79 H071        72.5890    60.4570    16.3370 hn         1 OQV       0.333500
     80 H221        69.9390    52.7430    16.0550 hn         1 OQV       0.345500
     81 H101        70.6820    60.4770    13.8120 ho         1 OQV       0.405000
     82 C08         73.1760    58.9170    17.5160 c          1 OQV       0.752100
     83 C03         72.6500    57.9930    14.0140 c3         1 OQV      -0.085400
     84 C19         70.8440    55.0820    15.1460 c          1 OQV       0.651100
     85 O12         73.0730    57.7760    17.9210 o          1 OQV      -0.587000
     86 C23         70.1670    51.8180    14.2610 c          1 OQV       0.758100
     87 O20         71.0720    55.0760    16.3480 o          1 OQV      -0.589100
     88 H032        72.6620    57.9570    12.9200 hc         1 OQV       0.060200
     89 H031        73.5550    58.5250    14.3180 hc         1 OQV       0.060200
@<TRIPOS>BOND
     1     1    10 1   
     2     1    11 ar  
     3     1    13 ar  
     4     2    11 ar  
     5     2    12 ar  
     6     2    39 1   
     7     3    12 ar  
     8     3    13 ar  
     9     3    40 1   
    10     4    14 1   
    11     4    32 1   
    12     4    41 1   
    13     4    84 1   
    14     5     7 1   
    15     5    16 ar  
    16     5    20 ar  
    17     6     7 1   
    18     6    30 1   
    19     6    42 1   
    20     6    83 1   
    21     7    43 1   
    22     7    44 1   
    23     8     9 1   
    24     8    34 1   
    25     8    45 1   
    26     8    83 1   
    27     9    10 1   
    28     9    31 1   
    29     9    46 1   
    30    10    47 1   
    31    10    48 1   
    32    11    49 1   
    33    12    50 1   
    34    13    51 1   
    35    14    15 1   
    36    14    21 1   
    37    14    29 1   
    38    15    52 1   
    39    15    53 1   
    40    15    54 1   
    41    16    17 ar  
    42    16    55 1   
    43    17    18 ar  
    44    17    56 1   
    45    18    19 ar  
    46    18    57 1   
    47    19    20 ar  
    48    19    58 1   
    49    20    59 1   
    50    21    60 1   
    51    21    61 1   
    52    21    62 1   
    53    22    23 1   
    54    22    25 1   
    55    22    33 1   
    56    22    63 1   
    57    23    37 1   
    58    23    64 1   
    59    23    65 1   
    60    24    25 1   
    61    24    37 1   
    62    24    38 1   
    63    24    66 1   
    64    25    27 1   
    65    25    67 1   
    66    26    27 1   
    67    26    38 1   
    68    26    68 1   
    69    26    69 1   
    70    27    70 1   
    71    27    71 1   
    72    28    35 1   
    73    28    72 1   
    74    28    73 1   
    75    28    74 1   
    76    29    75 1   
    77    29    76 1   
    78    29    77 1   
    79    30    78 1   
    80    30    84 1   
    81    31    79 1   
    82    31    82 1   
    83    32    80 1   
    84    32    86 1   
    85    33    82 1   
    86    34    81 1   
    87    35    86 1   
    88    36    86 2   
    89    82    85 2   
    90    83    88 1   
    91    83    89 1   
    92    84    87 2   
@<TRIPOS>SUBSTRUCTURE
     1 OQV         1 TEMP              0 ****  ****    0 ROOT
