@<TRIPOS>MOLECULE
OQW
   41    42     1     0     0
SMALL
No Charge or Current Charge


@<TRIPOS>ATOM
      1 C6          16.2560     6.5410    15.1280 ca         1 OQW       0.106000
      2 C4          15.9350     5.3550    15.8100 ca         1 OQW       0.225000
      3 C3          16.2950     4.0910    15.2810 ca         1 OQW      -0.333500
      4 O1          17.2110     2.0240    16.6750 o          1 OQW      -0.525000
      5 C8          16.9640     6.4930    13.9260 ca         1 OQW      -0.101000
      6 C11         17.0060     4.0320    14.0530 ca         1 OQW       0.371000
      7 C13         17.5770     2.3980    12.1130 c3         1 OQW       0.204500
      8 C14         18.0840     0.9300    12.1200 c3         1 OQW      -0.084900
      9 C9          17.3460     5.2550    13.3940 ca         1 OQW       0.118000
     10 C15         18.1440     0.1780    10.7680 c3         1 OQW      -0.068400
     11 C16         19.0860     0.7520     9.6810 c3         1 OQW      -0.070400
     12 C17         18.7450     2.1460     9.0970 c3         1 OQW      -0.072400
     13 C20         16.2790     2.6220    11.2770 c3         1 OQW      -0.084900
     14 C19         16.4860     3.2420     9.8680 c3         1 OQW      -0.068400
     15 C18         17.2450     2.4100     8.8010 c3         1 OQW      -0.070400
     16 O22         14.8350     2.8140    17.1720 o          1 OQW      -0.525000
     17 S2          15.9480     2.6190    16.2490 sy         1 OQW       1.150600
     18 N21         15.3720     1.5430    15.1620 n8         1 OQW      -1.052100
     19 F10         18.0600     5.2770    12.2430 f          1 OQW      -0.169000
     20 F7          15.9080     7.7430    15.6440 f          1 OQW      -0.152000
     21 F5          15.3030     5.4650    17.0010 f          1 OQW      -0.138000
     22 N12         17.3480     2.7720    13.5210 nu         1 OQW      -0.911200
     23 H1          17.2270     7.4130    13.4110 ha         1 OQW       0.154000
     24 H2          18.3820     3.0190    11.7050 h1         1 OQW       0.085700
     25 H3          17.4360     0.3410    12.7810 hc         1 OQW       0.042200
     26 H4          19.0810     0.9090    12.5770 hc         1 OQW       0.042200
     27 H5          17.1340     0.0580    10.3630 hc         1 OQW       0.039700
     28 H6          18.4820    -0.8430    10.9820 hc         1 OQW       0.039700
     29 H7          19.0960     0.0360     8.8490 hc         1 OQW       0.038700
     30 H8          20.1110     0.7740    10.0700 hc         1 OQW       0.038700
     31 H9          19.2960     2.2400     8.1530 hc         1 OQW       0.039700
     32 H10         19.1520     2.9390     9.7330 hc         1 OQW       0.039700
     33 H11         15.6150     3.3080    11.8160 hc         1 OQW       0.042200
     34 H12         15.7120     1.6870    11.1950 hc         1 OQW       0.042200
     35 H13         16.9890     4.2110     9.9800 hc         1 OQW       0.039700
     36 H14         15.4940     3.4720     9.4610 hc         1 OQW       0.039700
     37 H15         17.1910     2.9740     7.8610 hc         1 OQW       0.038700
     38 H16         16.7160     1.4700     8.6040 hc         1 OQW       0.038700
     39 H17         15.2770     0.7100    15.7410 hn         1 OQW       0.490500
     40 H18         14.4040     1.8500    15.0700 hn         1 OQW       0.490500
     41 H19         16.9210     2.0170    14.0650 hn         1 OQW       0.469000
@<TRIPOS>BOND
     1     1     2 ar  
     2     1     5 ar  
     3     1    20 1   
     4     2     3 ar  
     5     2    21 1   
     6     3     6 ar  
     7     3    17 1   
     8     4    17 2   
     9     5     9 ar  
    10     5    23 1   
    11     6     9 ar  
    12     6    22 1   
    13     7     8 1   
    14     7    13 1   
    15     7    22 1   
    16     7    24 1   
    17     8    10 1   
    18     8    25 1   
    19     8    26 1   
    20     9    19 1   
    21    10    11 1   
    22    10    27 1   
    23    10    28 1   
    24    11    12 1   
    25    11    29 1   
    26    11    30 1   
    27    12    15 1   
    28    12    31 1   
    29    12    32 1   
    30    13    14 1   
    31    13    33 1   
    32    13    34 1   
    33    14    15 1   
    34    14    35 1   
    35    14    36 1   
    36    15    37 1   
    37    15    38 1   
    38    16    17 2   
    39    17    18 1   
    40    18    39 1   
    41    18    40 1   
    42    22    41 1   
@<TRIPOS>SUBSTRUCTURE
     1 OQW         1 TEMP              0 ****  ****    0 ROOT
