@<TRIPOS>MOLECULE
OQW
   41    42     1     0     0
SMALL
abcg2


@<TRIPOS>ATOM
      1 C6          16.4170     6.5080    15.0060 ca         1 OQW       0.106000
      2 C4          15.9230     5.3680    15.5920 ca         1 OQW       0.225000
      3 C3          16.2470     4.0990    15.1050 ca         1 OQW      -0.333500
      4 O1          16.1560     2.5310    17.2130 o          1 OQW      -0.525000
      5 C8          17.3050     6.4060    13.9550 ca         1 OQW      -0.101000
      6 C11         17.1940     3.9540    14.0630 ca         1 OQW       0.371000
      7 C13         17.6930     2.3940    12.1820 c3         1 OQW       0.204500
      8 C14         18.2890     0.9850    12.1190 c3         1 OQW      -0.084900
      9 C9          17.6850     5.1590    13.5300 ca         1 OQW       0.118000
     10 C15         18.2000     0.2610    10.7830 c3         1 OQW      -0.068400
     11 C16         18.9640     0.8650     9.6100 c3         1 OQW      -0.070400
     12 C17         18.4990     2.2310     9.0980 c3         1 OQW      -0.072400
     13 C20         16.3050     2.5120    11.5240 c3         1 OQW      -0.084900
     14 C19         16.2980     3.1430    10.1300 c3         1 OQW      -0.068400
     15 C18         16.9790     2.4040     8.9760 c3         1 OQW      -0.070400
     16 O22         14.0120     3.1310    16.0470 o          1 OQW      -0.525000
     17 S2          15.4170     2.7760    15.9890 sy         1 OQW       1.150600
     18 N21         15.6220     1.4440    15.0460 n8         1 OQW      -1.052100
     19 F10         18.6220     5.0970    12.5750 f          1 OQW      -0.169000
     20 F7          16.0610     7.7040    15.4790 f          1 OQW      -0.152000
     21 F5          15.1300     5.5020    16.6540 f          1 OQW      -0.138000
     22 N12         17.6790     2.7500    13.6120 nu         1 OQW      -0.911200
     23 H1          17.7300     7.2930    13.5010 ha         1 OQW       0.154000
     24 H2          18.3750     3.0740    11.6780 h1         1 OQW       0.085700
     25 H3          17.7680     0.3640    12.8570 hc         1 OQW       0.042200
     26 H4          19.3330     1.0330    12.4440 hc         1 OQW       0.042200
     27 H5          17.1500     0.1250    10.5080 hc         1 OQW       0.039700
     28 H6          18.5820    -0.7510    10.9410 hc         1 OQW       0.039700
     29 H7          18.8930     0.1530     8.7820 hc         1 OQW       0.038700
     30 H8          20.0280     0.9220     9.8630 hc         1 OQW       0.038700
     31 H9          18.9520     2.3760     8.1140 hc         1 OQW       0.039700
     32 H10         18.9110     3.0340     9.7140 hc         1 OQW       0.039700
     33 H11         15.6760     3.1500    12.1510 hc         1 OQW       0.042200
     34 H12         15.8020     1.5400    11.5080 hc         1 OQW       0.042200
     35 H13         16.7440     4.1410    10.2080 hc         1 OQW       0.039700
     36 H14         15.2530     3.3080     9.8500 hc         1 OQW       0.039700
     37 H15         16.7660     2.9790     8.0720 hc         1 OQW       0.038700
     38 H16         16.4990     1.4330     8.8170 hc         1 OQW       0.038700
     39 H17         15.8120     0.6110    15.5930 hn         1 OQW       0.490500
     40 H18         14.8820     1.2980    14.3670 hn         1 OQW       0.490500
     41 H19         17.2930     1.9820    14.1460 hn         1 OQW       0.469000
@<TRIPOS>BOND
     1     1     2 ar  
     2     1     5 ar  
     3     1    20 1   
     4     2     3 ar  
     5     2    21 1   
     6     3     6 ar  
     7     3    17 1   
     8     4    17 2   
     9     5     9 ar  
    10     5    23 1   
    11     6     9 ar  
    12     6    22 1   
    13     7     8 1   
    14     7    13 1   
    15     7    22 1   
    16     7    24 1   
    17     8    10 1   
    18     8    25 1   
    19     8    26 1   
    20     9    19 1   
    21    10    11 1   
    22    10    27 1   
    23    10    28 1   
    24    11    12 1   
    25    11    29 1   
    26    11    30 1   
    27    12    15 1   
    28    12    31 1   
    29    12    32 1   
    30    13    14 1   
    31    13    33 1   
    32    13    34 1   
    33    14    15 1   
    34    14    35 1   
    35    14    36 1   
    36    15    37 1   
    37    15    38 1   
    38    16    17 2   
    39    17    18 1   
    40    18    39 1   
    41    18    40 1   
    42    22    41 1   
@<TRIPOS>SUBSTRUCTURE
     1 OQW         1 TEMP              0 ****  ****    0 ROOT
