@<TRIPOS>MOLECULE
OQX
   48    51     1     0     0
SMALL
abcg2


@<TRIPOS>ATOM
      1 N1           6.8820     0.1620    20.1730 na         1 OQX       0.063600
      2 N3           6.4540     0.5180    18.0870 nc         1 OQX      -0.215400
      3 C4           9.2080    -0.6110    23.6070 ca         1 OQX      -0.114000
      4 C5          10.1320    -1.5390    23.1470 ca         1 OQX      -0.070500
      5 C6          10.2170    -2.8020    23.7240 ca         1 OQX      -0.164500
      6 C7           9.9060     1.7620    23.6810 c3         1 OQX       0.150300
      7 C8          11.3920     1.5710    23.5030 ca         1 OQX      -0.104300
      8 C10         13.5790     1.0990    24.4140 ca         1 OQX      -0.105000
      9 C13         11.9460     1.6220    22.2230 ca         1 OQX      -0.087000
     10 C15          7.6970    -0.2380    21.2890 c3         1 OQX       0.012600
     11 C17          4.1920     1.5990    18.4220 ca         1 OQX      -0.027000
     12 C20          4.7790     1.1430    21.1940 ca         1 OQX      -0.112000
     13 C21          5.6650     0.7700    20.1790 ca         1 OQX      -0.058200
     14 O1           8.4240     2.0560    21.3430 o          1 OQX      -0.573100
     15 C14          8.4550     0.9560    21.8840 c          1 OQX       0.587100
     16 C19          3.6030     1.7410    20.7850 ca         1 OQX      -0.076000
     17 C18          3.3120     1.9670    19.4200 ca         1 OQX      -0.140000
     18 C16          5.3900     0.9920    18.8200 ca         1 OQX       0.015400
     19 N2           7.3320     0.0350    18.9060 nd         1 OQX      -0.154400
     20 N            9.1360     0.6960    23.0230 n          1 OQX      -0.240400
     21 C3           8.3710    -0.9420    24.6720 ca         1 OQX      -0.070500
     22 C2           8.4480    -2.1930    25.2560 ca         1 OQX      -0.164500
     23 C1           9.3710    -3.1340    24.7830 ca         1 OQX       0.148100
     24 O            9.3710    -4.3360    25.4120 os         1 OQX      -0.346100
     25 C           10.2970    -5.3320    24.9740 c3         1 OQX       0.147900
     26 C12         13.3040     1.4080    22.0610 ca         1 OQX       0.119000
     27 CL          13.9910     1.4680    20.4490 cl         1 OQX      -0.207000
     28 C11         14.1370     1.1450    23.1430 ca         1 OQX      -0.097000
     29 C9          12.2150     1.3070    24.5940 ca         1 OQX      -0.096000
     30 H1          10.7890    -1.2770    22.3280 ha         1 OQX       0.127500
     31 H2          10.9400    -3.5090    23.3450 ha         1 OQX       0.130500
     32 H3           9.5810     2.7050    23.2500 h1         1 OQX       0.073200
     33 H4           9.6540     1.7570    24.7420 h1         1 OQX       0.073200
     34 H5          14.2130     0.8910    25.2660 ha         1 OQX       0.119000
     35 H6          11.3190     1.8180    21.3630 ha         1 OQX       0.144000
     36 H7           7.0660    -0.7070    22.0430 h1         1 OQX       0.091200
     37 H8           8.4040    -0.9870    20.9370 h1         1 OQX       0.091200
     38 H9           3.9730     1.7700    17.3760 ha         1 OQX       0.134000
     39 H10          5.0020     0.9740    22.2390 ha         1 OQX       0.121000
     40 H11          2.8810     2.0500    21.5300 ha         1 OQX       0.115000
     41 H12          2.3740     2.4400    19.1580 ha         1 OQX       0.118000
     42 H13          7.6540    -0.2160    25.0330 ha         1 OQX       0.127500
     43 H14          7.7990    -2.4630    26.0780 ha         1 OQX       0.130500
     44 H15         10.1250    -6.1970    25.6090 h1         1 OQX       0.046033
     45 H16         10.1180    -5.5990    23.9300 h1         1 OQX       0.046033
     46 H17         11.3270    -4.9870    25.0930 h1         1 OQX       0.046033
     47 H18         15.1950     0.9800    22.9910 ha         1 OQX       0.130000
     48 H19         11.7850     1.2570    25.5860 ha         1 OQX       0.117000
@<TRIPOS>BOND
     1     1    10 1   
     2     1    13 1   
     3     1    19 1   
     4     2    18 1   
     5     2    19 2   
     6     3     4 ar  
     7     3    20 1   
     8     3    21 ar  
     9     4     5 ar  
    10     4    30 1   
    11     5    23 ar  
    12     5    31 1   
    13     6     7 1   
    14     6    20 1   
    15     6    32 1   
    16     6    33 1   
    17     7     9 ar  
    18     7    29 ar  
    19     8    28 ar  
    20     8    29 ar  
    21     8    34 1   
    22     9    26 ar  
    23     9    35 1   
    24    10    15 1   
    25    10    36 1   
    26    10    37 1   
    27    11    17 ar  
    28    11    18 ar  
    29    11    38 1   
    30    12    13 ar  
    31    12    16 ar  
    32    12    39 1   
    33    13    18 ar  
    34    14    15 2   
    35    15    20 1   
    36    16    17 ar  
    37    16    40 1   
    38    17    41 1   
    39    21    22 ar  
    40    21    42 1   
    41    22    23 ar  
    42    22    43 1   
    43    23    24 1   
    44    24    25 1   
    45    25    44 1   
    46    25    45 1   
    47    25    46 1   
    48    26    27 1   
    49    26    28 ar  
    50    28    47 1   
    51    29    48 1   
@<TRIPOS>SUBSTRUCTURE
     1 OQX         1 TEMP              0 ****  ****    0 ROOT
