@<TRIPOS>MOLECULE
OQX
   48    51     1     0     0
SMALL
No Charge or Current Charge


@<TRIPOS>ATOM
      1 N1           7.2380    -0.1350    19.7590 na         1 OQX       0.063600
      2 N3           6.1770     0.2240    17.8840 nc         1 OQX      -0.215400
      3 C4           9.3060    -0.7170    23.4950 ca         1 OQX      -0.114000
      4 C5           9.8130    -1.9360    22.9960 ca         1 OQX      -0.070500
      5 C6           9.6100    -3.1390    23.6950 ca         1 OQX      -0.164500
      6 C7           9.8640     1.7170    23.3820 c3         1 OQX       0.150300
      7 C8          11.3800     1.8660    23.3280 ca         1 OQX      -0.104300
      8 C10         13.5950     1.2290    24.1370 ca         1 OQX      -0.105000
      9 C13         11.9810     2.7560    22.4150 ca         1 OQX      -0.087000
     10 C15          8.2830    -0.5940    20.6840 c3         1 OQX       0.012600
     11 C17          4.1730     1.3270    18.9530 ca         1 OQX      -0.027000
     12 C20          5.5720     0.8420    21.3830 ca         1 OQX      -0.112000
     13 C21          6.0820     0.4750    20.1290 ca         1 OQX      -0.058200
     14 O1           9.3690     1.5540    20.6570 o          1 OQX      -0.573100
     15 C14          9.0720     0.5640    21.3200 c          1 OQX       0.587100
     16 C19          4.3120     1.4760    21.4030 ca         1 OQX      -0.076000
     17 C18          3.6160     1.7170    20.1930 ca         1 OQX      -0.140000
     18 C16          5.4270     0.6980    18.9580 ca         1 OQX       0.015400
     19 N2           7.3000    -0.2950    18.3890 nd         1 OQX      -0.154400
     20 N            9.3840     0.4880    22.7050 n          1 OQX      -0.240400
     21 C3           8.4950    -0.7450    24.6480 ca         1 OQX      -0.070500
     22 C2           8.2900    -1.9460    25.3470 ca         1 OQX      -0.164500
     23 C1           8.8510    -3.1450    24.8840 ca         1 OQX       0.148100
     24 O            8.6140    -4.2930    25.6120 os         1 OQX      -0.346100
     25 C            9.1410    -5.5740    25.2190 c3         1 OQX       0.147900
     26 C12         13.3790     2.8810    22.3660 ca         1 OQX       0.119000
     27 Cl          14.1200     3.9940    21.2230 cl         1 OQX      -0.207000
     28 C11         14.1870     2.1200    23.2260 ca         1 OQX      -0.097000
     29 C9          12.1950     1.1020    24.1870 ca         1 OQX      -0.096000
     30 H1          10.3990    -1.9510    22.0790 ha         1 OQX       0.127500
     31 H2          10.0420    -4.0520    23.2960 ha         1 OQX       0.130500
     32 H3           9.3860     2.5990    22.9350 h1         1 OQX       0.073200
     33 H4           9.5560     1.7010    24.4340 h1         1 OQX       0.073200
     34 H5          14.2190     0.6360    24.8030 ha         1 OQX       0.119000
     35 H6          11.3670     3.3480    21.7410 ha         1 OQX       0.144000
     36 H7           7.7940    -1.1770    21.4710 h1         1 OQX       0.091200
     37 H8           8.9900    -1.2430    20.1570 h1         1 OQX       0.091200
     38 H9           3.6450     1.5080    18.0200 ha         1 OQX       0.134000
     39 H10          6.1180     0.6490    22.3030 ha         1 OQX       0.121000
     40 H11          3.8730     1.7800    22.3520 ha         1 OQX       0.115000
     41 H12          2.6450     2.2060    20.2170 ha         1 OQX       0.118000
     42 H13          8.0130     0.1630    25.0060 ha         1 OQX       0.127500
     43 H14          7.6790    -1.9510    26.2460 ha         1 OQX       0.130500
     44 H15          8.8380    -6.3460    25.9360 h1         1 OQX       0.046033
     45 H16          8.7660    -5.8630    24.2290 h1         1 OQX       0.046033
     46 H17         10.2380    -5.5510    25.1870 h1         1 OQX       0.046033
     47 H18         15.2690     2.2190    23.1840 ha         1 OQX       0.130000
     48 H19         11.7440     0.4070    24.8920 ha         1 OQX       0.117000
@<TRIPOS>BOND
     1     1    10 1   
     2     1    13 1   
     3     1    19 1   
     4     2    18 1   
     5     2    19 2   
     6     3     4 ar  
     7     3    20 1   
     8     3    21 ar  
     9     4     5 ar  
    10     4    30 1   
    11     5    23 ar  
    12     5    31 1   
    13     6     7 1   
    14     6    20 1   
    15     6    32 1   
    16     6    33 1   
    17     7     9 ar  
    18     7    29 ar  
    19     8    28 ar  
    20     8    29 ar  
    21     8    34 1   
    22     9    26 ar  
    23     9    35 1   
    24    10    15 1   
    25    10    36 1   
    26    10    37 1   
    27    11    17 ar  
    28    11    18 ar  
    29    11    38 1   
    30    12    13 ar  
    31    12    16 ar  
    32    12    39 1   
    33    13    18 ar  
    34    14    15 2   
    35    15    20 1   
    36    16    17 ar  
    37    16    40 1   
    38    17    41 1   
    39    21    22 ar  
    40    21    42 1   
    41    22    23 ar  
    42    22    43 1   
    43    23    24 1   
    44    24    25 1   
    45    25    44 1   
    46    25    45 1   
    47    25    46 1   
    48    26    27 1   
    49    26    28 ar  
    50    28    47 1   
    51    29    48 1   
@<TRIPOS>SUBSTRUCTURE
     1 OQX         1 TEMP              0 ****  ****    0 ROOT
