@<TRIPOS>MOLECULE
OQY
   89    92     1     0     0
SMALL
No Charge or Current Charge


@<TRIPOS>ATOM
      1 C13         73.7310    54.9290    14.3540 ca         1 OQY      -0.087300
      2 C15         74.6070    53.2570    15.9010 ca         1 OQY      -0.109500
      3 C17         73.5230    52.5500    13.8420 ca         1 OQY      -0.109500
      4 C22         74.8870    59.8850    19.0790 c5         1 OQY       0.161300
      5 C24         69.6960    58.0400    19.5660 ca         1 OQY      -0.101500
      6 C26         69.6330    59.1330    21.7410 ca         1 OQY      -0.111000
      7 C28         69.3700    60.4470    19.7080 ca         1 OQY      -0.101500
      8 C02         70.7390    58.9180    16.7090 c3         1 OQY       0.124700
      9 C04         69.4290    59.3600    17.4030 c3         1 OQY      -0.048100
     10 C05         71.8680    58.4270    14.4010 c3         1 OQY       0.166300
     11 C06         72.1970    56.9380    14.7460 c3         1 OQY       0.108700
     12 C09         69.5860    54.0670    14.8740 c3         1 OQY       0.053700
     13 C11         73.4440    56.3870    14.0060 c3         1 OQY      -0.042100
     14 C14         74.3840    54.6020    15.5580 ca         1 OQY      -0.098000
     15 C16         74.1750    52.2300    15.0440 ca         1 OQY      -0.108000
     16 C18         73.3030    53.8940    13.4960 ca         1 OQY      -0.098000
     17 C23         69.5010    59.2810    18.9260 ca         1 OQY      -0.086300
     18 C25         69.7640    57.9670    20.9680 ca         1 OQY      -0.111500
     19 C27         69.4330    60.3720    21.1100 ca         1 OQY      -0.111500
     20 C31         68.0850    54.4600    15.1400 c3         1 OQY      -0.047000
     21 C34         67.1430    53.4380    14.4460 c3         1 OQY      -0.087100
     22 C35         67.7640    54.4820    16.6620 c3         1 OQY      -0.087100
     23 C36         67.7830    55.8660    14.5540 c3         1 OQY      -0.087100
     24 C38         75.9150    61.0380    18.9320 c5         1 OQY       0.152600
     25 C40         75.1340    61.3110    21.0900 c5         1 OQY       0.370300
     26 C41         74.6020    59.9090    20.6370 c5         1 OQY      -0.147700
     27 C43         72.8270    61.4960    21.0430 c5         1 OQY       0.151600
     28 C44         73.0780    59.9710    21.0190 c5         1 OQY      -0.098400
     29 N01         71.8700    59.7070    17.2010 ns         1 OQY      -0.501900
     30 N07         71.0420    56.0500    14.5350 ns         1 OQY      -0.490900
     31 N29         69.9180    52.7330    15.4240 ns         1 OQY      -0.486900
     32 O10         71.6060    58.5590    12.9940 oh         1 OQY      -0.666000
     33 O20         73.1670    58.0160    18.0530 o          1 OQY      -0.530000
     34 O21         73.7230    60.2490    18.2790 os         1 OQY      -0.454100
     35 O32         70.4270    50.5800    15.5230 os         1 OQY      -0.452100
     36 O33         69.8650    51.4970    13.4890 o          1 OQY      -0.551000
     37 O39         75.4710    62.0190    19.8860 os         1 OQY      -0.459000
     38 O42         74.0130    61.9800    21.6970 os         1 OQY      -0.439000
     39 H151        75.1090    53.0100    16.8340 ha         1 OQY       0.110500
     40 H171        73.1830    51.7560    13.1800 ha         1 OQY       0.110500
     41 H221        75.3220    58.9380    18.7280 h1         1 OQY       0.085700
     42 H241        69.7950    57.1300    18.9780 ha         1 OQY       0.115500
     43 H261        69.6840    59.0760    22.8260 ha         1 OQY       0.113000
     44 H281        69.2190    61.4120    19.2300 ha         1 OQY       0.115500
     45 H021        70.8950    57.8670    16.9860 h1         1 OQY       0.105700
     46 H032        70.5060    60.0480    14.8790 hc         1 OQY       0.050700
     47 H031        69.7410    58.4720    14.8370 hc         1 OQY       0.050700
     48 H042        69.1840    60.3800    17.0840 hc         1 OQY       0.051700
     49 H041        68.6090    58.7250    17.0470 hc         1 OQY       0.051700
     50 H051        72.7480    59.0300    14.6660 h1         1 OQY       0.043700
     51 H061        72.4540    56.9120    15.8120 h1         1 OQY       0.103700
     52 H091        69.7440    54.0350    13.7880 h1         1 OQY       0.083700
     53 H112        74.3110    57.0100    14.2570 hc         1 OQY       0.057200
     54 H111        73.3010    56.4890    12.9230 hc         1 OQY       0.057200
     55 H141        74.7090    55.3900    16.2340 ha         1 OQY       0.113000
     56 H161        74.3420    51.1900    15.3130 ha         1 OQY       0.109000
     57 H181        72.7880    54.1310    12.5680 ha         1 OQY       0.113000
     58 H251        69.9170    57.0060    21.4550 ha         1 OQY       0.114500
     59 H271        69.3290    61.2750    21.7070 ha         1 OQY       0.114500
     60 H341        66.0920    53.7300    14.5620 hc         1 OQY       0.038922
     61 H342        67.3570    53.3740    13.3720 hc         1 OQY       0.038922
     62 H343        67.2530    52.4350    14.8750 hc         1 OQY       0.038922
     63 H353        68.3810    55.2180    17.1910 hc         1 OQY       0.038922
     64 H352        66.7140    54.7480    16.8330 hc         1 OQY       0.038922
     65 H351        67.9350    53.5010    17.1220 hc         1 OQY       0.038922
     66 H363        68.3300    56.6470    15.0940 hc         1 OQY       0.038922
     67 H362        68.0590    55.9200    13.4930 hc         1 OQY       0.038922
     68 H361        66.7150    56.1030    14.6350 hc         1 OQY       0.038922
     69 H373        70.9570    48.5660    15.7110 h1         1 OQY       0.046700
     70 H371        69.7410    48.9060    14.4610 h1         1 OQY       0.046700
     71 H372        71.4500    49.3300    14.1850 h1         1 OQY       0.046700
     72 H381        76.9290    60.7090    19.1970 h1         1 OQY       0.060200
     73 H401        75.9950    61.2460    21.7700 h2         1 OQY       0.079700
     74 H411        75.1240    59.0950    21.1510 hc         1 OQY       0.077700
     75 H432        71.9350    61.7760    21.6190 h1         1 OQY       0.053700
     76 H431        72.7550    61.9290    20.0360 h1         1 OQY       0.053700
     77 H442        72.9150    59.5550    22.0190 hc         1 OQY       0.066200
     78 H441        72.4000    59.4280    20.3560 hc         1 OQY       0.066200
     79 H011        71.8270    60.7150    17.1400 hn         1 OQY       0.322500
     80 H071        70.6130    56.0530    13.6180 hn         1 OQY       0.321500
     81 H291        70.1490    52.6570    16.4070 hn         1 OQY       0.344500
     82 H101        71.4840    59.5160    12.8120 ho         1 OQY       0.445000
     83 C08         70.6190    55.0900    15.4320 c          1 OQY       0.581100
     84 C03         70.6450    58.9980    15.1660 c3         1 OQY      -0.124400
     85 C19         72.9520    59.2020    17.8620 c          1 OQY       0.636100
     86 C30         70.0420    51.5880    14.6940 c          1 OQY       0.641100
     87 O12         71.0670    55.0270    16.5710 o          1 OQY      -0.597100
     88 H382        75.9350    61.4700    17.9230 h1         1 OQY       0.060200
     89 C37         70.6540    49.2850    14.9390 c3         1 OQY       0.170900
@<TRIPOS>BOND
     1     1    13 1   
     2     1    14 ar  
     3     1    16 ar  
     4     2    14 ar  
     5     2    15 ar  
     6     2    39 1   
     7     3    15 ar  
     8     3    16 ar  
     9     3    40 1   
    10     4    24 1   
    11     4    26 1   
    12     4    34 1   
    13     4    41 1   
    14     5    17 ar  
    15     5    18 ar  
    16     5    42 1   
    17     6    18 ar  
    18     6    19 ar  
    19     6    43 1   
    20     7    17 ar  
    21     7    19 ar  
    22     7    44 1   
    23     8     9 1   
    24     8    29 1   
    25     8    45 1   
    26     8    84 1   
    27     9    17 1   
    28     9    48 1   
    29     9    49 1   
    30    10    11 1   
    31    10    32 1   
    32    10    50 1   
    33    10    84 1   
    34    11    13 1   
    35    11    30 1   
    36    11    51 1   
    37    12    20 1   
    38    12    31 1   
    39    12    52 1   
    40    12    83 1   
    41    13    53 1   
    42    13    54 1   
    43    14    55 1   
    44    15    56 1   
    45    16    57 1   
    46    18    58 1   
    47    19    59 1   
    48    20    21 1   
    49    20    22 1   
    50    20    23 1   
    51    21    60 1   
    52    21    61 1   
    53    21    62 1   
    54    22    63 1   
    55    22    64 1   
    56    22    65 1   
    57    23    66 1   
    58    23    67 1   
    59    23    68 1   
    60    24    37 1   
    61    24    72 1   
    62    24    88 1   
    63    25    26 1   
    64    25    37 1   
    65    25    38 1   
    66    25    73 1   
    67    26    28 1   
    68    26    74 1   
    69    27    28 1   
    70    27    38 1   
    71    27    75 1   
    72    27    76 1   
    73    28    77 1   
    74    28    78 1   
    75    29    79 1   
    76    29    85 1   
    77    30    80 1   
    78    30    83 1   
    79    31    81 1   
    80    31    86 1   
    81    32    82 1   
    82    33    85 2   
    83    34    85 1   
    84    35    86 1   
    85    35    89 1   
    86    36    86 2   
    87    46    84 1   
    88    47    84 1   
    89    69    89 1   
    90    70    89 1   
    91    71    89 1   
    92    83    87 2   
@<TRIPOS>SUBSTRUCTURE
     1 OQY         1 TEMP              0 ****  ****    0 ROOT
