@<TRIPOS>MOLECULE
OQY
   89    92     1     0     0
SMALL
bcc


@<TRIPOS>ATOM
      1 C13         73.7620    54.9730    14.3990 ca         1 OQY      -0.087300
      2 C15         74.8490    53.5510    16.0280 ca         1 OQY      -0.127500
      3 C17         73.6570    52.5650    14.1950 ca         1 OQY      -0.127500
      4 C22         74.8050    59.5530    19.1180 c5         1 OQY       0.138100
      5 C24         69.4630    58.0770    19.3980 ca         1 OQY      -0.119500
      6 C26         69.4210    59.1540    21.5500 ca         1 OQY      -0.129000
      7 C28         69.4500    60.4670    19.5330 ca         1 OQY      -0.119500
      8 C02         70.7460    58.8370    16.6160 c3         1 OQY       0.124700
      9 C04         69.4650    59.3910    17.2520 c3         1 OQY      -0.048100
     10 C05         71.8300    58.3240    14.3230 c3         1 OQY       0.143100
     11 C06         72.1580    56.8800    14.6970 c3         1 OQY       0.108700
     12 C09         69.4870    54.1810    14.9880 c3         1 OQY       0.053700
     13 C11         73.3730    56.3430    13.9230 c3         1 OQY      -0.042100
     14 C14         74.5220    54.8150    15.5560 ca         1 OQY      -0.116000
     15 C16         74.4160    52.4200    15.3480 ca         1 OQY      -0.126000
     16 C18         73.3310    53.8320    13.7280 ca         1 OQY      -0.116000
     17 C23         69.4630    59.3140    18.7530 ca         1 OQY      -0.086300
     18 C25         69.4440    57.9950    20.7820 ca         1 OQY      -0.129500
     19 C27         69.4230    60.3910    20.9200 ca         1 OQY      -0.129500
     20 C31         68.0610    54.5620    15.4690 c3         1 OQY      -0.047000
     21 C34         67.0740    53.5860    14.8240 c3         1 OQY      -0.087100
     22 C35         67.9120    54.4910    16.9890 c3         1 OQY      -0.087100
     23 C36         67.7330    55.9790    15.0000 c3         1 OQY      -0.087100
     24 C38         75.9540    60.5220    18.9130 c5         1 OQY       0.129400
     25 C40         75.0880    61.1630    20.9210 c5         1 OQY       0.323900
     26 C41         74.4750    59.7760    20.6040 c5         1 OQY      -0.147700
     27 C43         72.8190    61.4610    20.9210 c5         1 OQY       0.128400
     28 C44         73.0110    59.9540    21.0040 c5         1 OQY      -0.098400
     29 N01         71.9070    59.5580    17.0940 ns         1 OQY      -0.568900
     30 N07         71.0190    56.0060    14.5160 ns         1 OQY      -0.557900
     31 N29         69.8830    52.8610    15.4100 ns         1 OQY      -0.553900
     32 O10         71.5780    58.3560    12.9330 oh         1 OQY      -0.603800
     33 O20         72.9360    57.8420    18.1850 o          1 OQY      -0.579000
     34 O21         73.7470    59.9460    18.2500 os         1 OQY      -0.430900
     35 O32         70.6130    50.7910    15.2080 os         1 OQY      -0.428900
     36 O33         70.0510    51.9160    13.3410 o          1 OQY      -0.600000
     37 O39         75.6490    61.6390    19.7190 os         1 OQY      -0.412600
     38 O42         74.0680    61.9980    21.3460 os         1 OQY      -0.392600
     39 H151        75.4430    53.4490    16.9280 ha         1 OQY       0.128500
     40 H171        73.3230    51.6900    13.6500 ha         1 OQY       0.128500
     41 H221        75.1020    58.5250    18.9100 h1         1 OQY       0.085700
     42 H241        69.4710    57.1660    18.8090 ha         1 OQY       0.133500
     43 H261        69.4010    59.0920    22.6300 ha         1 OQY       0.131000
     44 H281        69.4490    61.4370    19.0500 ha         1 OQY       0.133500
     45 H021        70.8590    57.8010    16.9360 h1         1 OQY       0.105700
     46 H032        70.5040    59.9380    14.7900 hc         1 OQY       0.050700
     47 H031        69.7360    58.3640    14.7890 hc         1 OQY       0.050700
     48 H042        69.3230    60.4270    16.9310 hc         1 OQY       0.051700
     49 H041        68.6190    58.8240    16.8530 hc         1 OQY       0.051700
     50 H051        72.7240    58.9160    14.5660 h1         1 OQY       0.043700
     51 H061        72.4120    56.8630    15.7560 h1         1 OQY       0.103700
     52 H091        69.4590    54.1750    13.8960 h1         1 OQY       0.083700
     53 H112        74.2020    57.0400    14.0650 hc         1 OQY       0.057200
     54 H111        73.1530    56.3190    12.8540 hc         1 OQY       0.057200
     55 H141        74.8600    55.6930    16.0970 ha         1 OQY       0.131000
     56 H161        74.6710    51.4330    15.7120 ha         1 OQY       0.127000
     57 H181        72.7380    53.9340    12.8260 ha         1 OQY       0.131000
     58 H251        69.4410    57.0260    21.2640 ha         1 OQY       0.132500
     59 H271        69.4050    61.2990    21.5090 ha         1 OQY       0.132500
     60 H341        66.0530    53.8460    15.1070 hc         1 OQY       0.038922
     61 H342        67.1350    53.6210    13.7340 hc         1 OQY       0.038922
     62 H343        67.2510    52.5580    15.1410 hc         1 OQY       0.038922
     63 H353        68.5380    55.2200    17.5020 hc         1 OQY       0.038922
     64 H352        66.8760    54.7010    17.2620 hc         1 OQY       0.038922
     65 H351        68.1500    53.5010    17.3820 hc         1 OQY       0.038922
     66 H363        68.3400    56.7310    15.5070 hc         1 OQY       0.038922
     67 H362        67.8790    56.0930    13.9230 hc         1 OQY       0.038922
     68 H361        66.6890    56.2100    15.2180 hc         1 OQY       0.038922
     69 H373        71.2590    48.8870    15.1400 h1         1 OQY       0.046700
     70 H371        70.0370    49.2590    13.9110 h1         1 OQY       0.046700
     71 H372        71.7060    49.8300    13.7070 h1         1 OQY       0.046700
     72 H381        76.8890    60.0410    19.2300 h1         1 OQY       0.060200
     73 H401        75.8550    61.1390    21.7030 h2         1 OQY       0.079700
     74 H411        74.9570    58.9900    21.1860 hc         1 OQY       0.077700
     75 H432        72.0430    61.8350    21.5880 h1         1 OQY       0.053700
     76 H431        72.5740    61.7820    19.9040 h1         1 OQY       0.053700
     77 H442        72.8790    59.6210    22.0350 hc         1 OQY       0.066200
     78 H441        72.2930    59.3990    20.4040 hc         1 OQY       0.066200
     79 H011        71.9400    60.5530    16.9260 hn         1 OQY       0.322500
     80 H071        70.6410    55.9330    13.5840 hn         1 OQY       0.321500
     81 H291        70.1090    52.7270    16.3840 hn         1 OQY       0.344500
     82 H101        71.3520    59.2570    12.6800 ho         1 OQY       0.406000
     83 C08         70.5710    55.1540    15.4510 c          1 OQY       0.648100
     84 C03         70.6420    58.8930    15.0940 c3         1 OQY      -0.124400
     85 C19         72.8600    59.0130    17.8700 c          1 OQY       0.752100
     86 C30         70.1750    51.8670    14.5470 c          1 OQY       0.757100
     87 O12         70.9930    55.1170    16.5990 o          1 OQY      -0.597100
     88 H382        76.0750    60.8440    17.8780 h1         1 OQY       0.060200
     89 C37         70.9160    49.6380    14.4340 c3         1 OQY       0.147700
@<TRIPOS>BOND
     1     1    13 1   
     2     1    14 ar  
     3     1    16 ar  
     4     2    14 ar  
     5     2    15 ar  
     6     2    39 1   
     7     3    15 ar  
     8     3    16 ar  
     9     3    40 1   
    10     4    24 1   
    11     4    26 1   
    12     4    34 1   
    13     4    41 1   
    14     5    17 ar  
    15     5    18 ar  
    16     5    42 1   
    17     6    18 ar  
    18     6    19 ar  
    19     6    43 1   
    20     7    17 ar  
    21     7    19 ar  
    22     7    44 1   
    23     8     9 1   
    24     8    29 1   
    25     8    45 1   
    26     8    84 1   
    27     9    17 1   
    28     9    48 1   
    29     9    49 1   
    30    10    11 1   
    31    10    32 1   
    32    10    50 1   
    33    10    84 1   
    34    11    13 1   
    35    11    30 1   
    36    11    51 1   
    37    12    20 1   
    38    12    31 1   
    39    12    52 1   
    40    12    83 1   
    41    13    53 1   
    42    13    54 1   
    43    14    55 1   
    44    15    56 1   
    45    16    57 1   
    46    18    58 1   
    47    19    59 1   
    48    20    21 1   
    49    20    22 1   
    50    20    23 1   
    51    21    60 1   
    52    21    61 1   
    53    21    62 1   
    54    22    63 1   
    55    22    64 1   
    56    22    65 1   
    57    23    66 1   
    58    23    67 1   
    59    23    68 1   
    60    24    37 1   
    61    24    72 1   
    62    24    88 1   
    63    25    26 1   
    64    25    37 1   
    65    25    38 1   
    66    25    73 1   
    67    26    28 1   
    68    26    74 1   
    69    27    28 1   
    70    27    38 1   
    71    27    75 1   
    72    27    76 1   
    73    28    77 1   
    74    28    78 1   
    75    29    79 1   
    76    29    85 1   
    77    30    80 1   
    78    30    83 1   
    79    31    81 1   
    80    31    86 1   
    81    32    82 1   
    82    33    85 2   
    83    34    85 1   
    84    35    86 1   
    85    35    89 1   
    86    36    86 2   
    87    46    84 1   
    88    47    84 1   
    89    69    89 1   
    90    70    89 1   
    91    71    89 1   
    92    83    87 2   
@<TRIPOS>SUBSTRUCTURE
     1 OQY         1 TEMP              0 ****  ****    0 ROOT
