@<TRIPOS>MOLECULE
OQZ
   48    50     1     0     0
SMALL
No Charge or Current Charge


@<TRIPOS>ATOM
      1 C12         77.9630    14.4820    89.8570 c3         1 OQZ      -0.033100
      2 C13         76.5210    14.0890    89.5570 ca         1 OQZ      -0.087300
      3 C14         76.1590    13.6510    88.2680 ca         1 OQZ      -0.106500
      4 C15         74.8380    13.2540    87.9990 ca         1 OQZ      -0.113500
      5 C16         73.8700    13.2940    89.0170 ca         1 OQZ      -0.112000
      6 C17         74.2230    13.7360    90.3030 ca         1 OQZ      -0.113500
      7 C18         75.5440    14.1340    90.5720 ca         1 OQZ      -0.106500
      8 N           80.2770    13.6550    90.3190 n8         1 OQZ      -0.975200
      9 C           78.8190    13.2840    90.3450 c3         1 OQZ       0.100500
     10 O           79.3730    10.4650    93.9000 o          1 OQZ      -0.597100
     11 C1          78.2740    12.7440    91.7310 c          1 OQZ       0.609100
     12 C10         75.9110     9.9660    91.1500 c5         1 OQZ      -0.094400
     13 C11         77.0830    10.7930    90.5700 c5         1 OQZ       0.109000
     14 C2          77.0610    10.9250    93.0450 c5         1 OQZ       0.032700
     15 C3          78.1710    10.6020    94.0980 c          1 OQZ       0.606100
     16 C4          78.3170    10.1220    96.5560 c3         1 OQZ       0.176300
     17 C5          78.3480     8.6330    96.7480 cc         1 OQZ      -0.246300
     18 C6          77.3680     7.8290    97.2800 cd         1 OQZ      -0.126000
     19 C7          77.7170     6.4500    97.3050 cd         1 OQZ      -0.127000
     20 C8          78.9620     6.2040    96.7910 cc         1 OQZ      -0.044000
     21 C9          76.4620     9.5760    92.5410 c5         1 OQZ      -0.087400
     22 N1          77.5420    11.5310    91.7680 n          1 OQZ      -0.401800
     23 N2          77.5920    10.4780    95.3430 ns         1 OQZ      -0.496900
     24 O1          78.4920    13.3540    92.7750 o          1 OQZ      -0.586100
     25 S           79.7520     7.6820    96.2530 ss         1 OQZ       0.301000
     26 Cl          79.7140     4.6430    96.6610 cl         1 OQZ      -0.151000
     27 H1          78.4180    14.9090    88.9560 hc         1 OQZ       0.066200
     28 H2          77.9900    15.2760    90.6130 hc         1 OQZ       0.066200
     29 H3          76.9040    13.6070    87.4760 ha         1 OQZ       0.116000
     30 H4          74.5650    12.9120    87.0030 ha         1 OQZ       0.112500
     31 H5          72.8480    12.9850    88.8090 ha         1 OQZ       0.113000
     32 H6          73.4750    13.7670    91.0910 ha         1 OQZ       0.112500
     33 H7          75.8080    14.4690    91.5720 ha         1 OQZ       0.116000
     34 H8          80.8450    12.8320    90.5570 hn         1 OQZ       0.400500
     35 H9          80.5590    13.8710    89.3550 hn         1 OQZ       0.400500
     36 H11         78.7170    12.4820    89.6040 h1         1 OQZ       0.024700
     37 H12         75.0040    10.5760    91.2380 hc         1 OQZ       0.057700
     38 H13         75.6640     9.0970    90.5290 hc         1 OQZ       0.057700
     39 H14         77.8820    10.1470    90.1840 h1         1 OQZ       0.053200
     40 H15         76.7410    11.4480    89.7610 h1         1 OQZ       0.053200
     41 H16         76.2930    11.5650    93.5010 h1         1 OQZ       0.061700
     42 H17         79.3410    10.5180    96.5070 h1         1 OQZ       0.068700
     43 H18         77.8200    10.5900    97.4160 h1         1 OQZ       0.068700
     44 H19         76.4180     8.2080    97.6450 ha         1 OQZ       0.131000
     45 H20         77.0650     5.6720    97.6900 ha         1 OQZ       0.143000
     46 H21         75.6870     9.1850    93.2100 hc         1 OQZ       0.062700
     47 H22         77.2330     8.8010    92.4490 hc         1 OQZ       0.062700
     48 H23         76.5880    10.6010    95.4020 hn         1 OQZ       0.318500
@<TRIPOS>BOND
     1     1     2 1   
     2     1     9 1   
     3     1    27 1   
     4     1    28 1   
     5     2     3 ar  
     6     2     7 ar  
     7     3     4 ar  
     8     3    29 1   
     9     4     5 ar  
    10     4    30 1   
    11     5     6 ar  
    12     5    31 1   
    13     6     7 ar  
    14     6    32 1   
    15     7    33 1   
    16     8     9 1   
    17     8    34 1   
    18     8    35 1   
    19     9    11 1   
    20     9    36 1   
    21    10    15 2   
    22    11    22 1   
    23    11    24 2   
    24    12    13 1   
    25    12    21 1   
    26    12    37 1   
    27    12    38 1   
    28    13    22 1   
    29    13    39 1   
    30    13    40 1   
    31    14    15 1   
    32    14    21 1   
    33    14    22 1   
    34    14    41 1   
    35    15    23 1   
    36    16    17 1   
    37    16    23 1   
    38    16    42 1   
    39    16    43 1   
    40    17    18 2   
    41    17    25 1   
    42    18    19 1   
    43    18    44 1   
    44    19    20 2   
    45    19    45 1   
    46    20    25 1   
    47    20    26 1   
    48    21    46 1   
    49    21    47 1   
    50    23    48 1   
@<TRIPOS>SUBSTRUCTURE
     1 OQZ         1 TEMP              0 ****  ****    0 ROOT
