@<TRIPOS>MOLECULE
OQZ
   48    50     1     0     0
SMALL
bcc


@<TRIPOS>ATOM
      1 C12         77.9410    14.4040    90.1430 c3         1 OQZ      -0.033100
      2 C13         76.5310    14.0320    89.7770 ca         1 OQZ      -0.087300
      3 C14         76.1960    13.7510    88.4540 ca         1 OQZ      -0.124500
      4 C15         74.9130    13.3460    88.1130 ca         1 OQZ      -0.131500
      5 C16         73.9400    13.2170    89.0960 ca         1 OQZ      -0.130000
      6 C17         74.2590    13.5050    90.4160 ca         1 OQZ      -0.131500
      7 C18         75.5430    13.9100    90.7520 ca         1 OQZ      -0.124500
      8 N           80.1650    13.6370    90.7700 n8         1 OQZ      -0.864800
      9 C           78.8120    13.1840    90.4920 c3         1 OQZ       0.100500
     10 O           79.0630    10.0600    93.6260 o          1 OQZ      -0.597100
     11 C1          78.2400    12.5330    91.7490 c          1 OQZ       0.676100
     12 C10         76.0170     9.8340    90.8080 c5         1 OQZ      -0.094400
     13 C11         77.2390    10.6430    90.4030 c5         1 OQZ       0.109000
     14 C2          76.9330    10.8040    92.7980 c5         1 OQZ       0.032700
     15 C3          77.9500    10.4920    93.8840 c          1 OQZ       0.673100
     16 C4          78.3140    10.2880    96.2830 c3         1 OQZ       0.176300
     17 C5          78.3210     8.8200    96.5770 cc         1 OQZ      -0.101400
     18 C6          77.7890     8.1920    97.6620 cd         1 OQZ      -0.144000
     19 C7          77.9660     6.7810    97.6510 cd         1 OQZ      -0.145000
     20 C8          78.6360     6.3780    96.5430 cc         1 OQZ       0.009300
     21 C9          76.2850     9.5150    92.2730 c5         1 OQZ      -0.087400
     22 N1          77.5590    11.3820    91.6230 n          1 OQZ      -0.468800
     23 N2          77.5060    10.6470    95.1390 ns         1 OQZ      -0.563900
     24 O1          78.3680    13.0680    92.8440 o          1 OQZ      -0.586100
     25 S           79.0590     7.6830    95.5040 ss         1 OQZ       0.011200
     26 CL          79.0540     4.7730    96.1240 cl         1 OQZ      -0.059400
     27 H1          78.4130    14.9230    89.3050 hc         1 OQZ       0.066200
     28 H2          77.9530    15.0890    90.9930 hc         1 OQZ       0.066200
     29 H3          76.9510    13.8460    87.6820 ha         1 OQZ       0.134000
     30 H4          74.6720    13.1330    87.0790 ha         1 OQZ       0.130500
     31 H5          72.9380    12.9010    88.8330 ha         1 OQZ       0.131000
     32 H6          73.5050    13.4160    91.1880 ha         1 OQZ       0.130500
     33 H7          75.7790    14.1330    91.7860 ha         1 OQZ       0.134000
     34 H8          80.7660    12.8380    90.9370 hn         1 OQZ       0.345300
     35 H9          80.5310    14.0820    89.9380 hn         1 OQZ       0.345300
     36 H11         78.7730    12.4870    89.6470 h1         1 OQZ       0.024700
     37 H12         75.1180    10.4470    90.7120 hc         1 OQZ       0.057700
     38 H13         75.8880     8.9440    90.1940 hc         1 OQZ       0.057700
     39 H14         78.0700     9.9920    90.1160 h1         1 OQZ       0.053200
     40 H15         77.0260    11.3100    89.5700 h1         1 OQZ       0.053200
     41 H16         76.1650    11.4830    93.1820 h1         1 OQZ       0.061700
     42 H17         79.3290    10.6580    96.1360 h1         1 OQZ       0.068700
     43 H18         77.9110    10.8050    97.1530 h1         1 OQZ       0.068700
     44 H19         77.2830     8.7250    98.4550 ha         1 OQZ       0.149000
     45 H20         77.6120     6.1140    98.4230 ha         1 OQZ       0.161000
     46 H21         75.3880     9.2580    92.8340 hc         1 OQZ       0.062700
     47 H22         76.9830     8.6780    92.3530 hc         1 OQZ       0.062700
     48 H23         76.5610    10.9540    95.3040 hn         1 OQZ       0.318500
@<TRIPOS>BOND
     1     1     2 1   
     2     1     9 1   
     3     1    27 1   
     4     1    28 1   
     5     2     3 ar  
     6     2     7 ar  
     7     3     4 ar  
     8     3    29 1   
     9     4     5 ar  
    10     4    30 1   
    11     5     6 ar  
    12     5    31 1   
    13     6     7 ar  
    14     6    32 1   
    15     7    33 1   
    16     8     9 1   
    17     8    34 1   
    18     8    35 1   
    19     9    11 1   
    20     9    36 1   
    21    10    15 2   
    22    11    22 1   
    23    11    24 2   
    24    12    13 1   
    25    12    21 1   
    26    12    37 1   
    27    12    38 1   
    28    13    22 1   
    29    13    39 1   
    30    13    40 1   
    31    14    15 1   
    32    14    21 1   
    33    14    22 1   
    34    14    41 1   
    35    15    23 1   
    36    16    17 1   
    37    16    23 1   
    38    16    42 1   
    39    16    43 1   
    40    17    18 2   
    41    17    25 1   
    42    18    19 1   
    43    18    44 1   
    44    19    20 2   
    45    19    45 1   
    46    20    25 1   
    47    20    26 1   
    48    21    46 1   
    49    21    47 1   
    50    23    48 1   
@<TRIPOS>SUBSTRUCTURE
     1 OQZ         1 TEMP              0 ****  ****    0 ROOT
