@<TRIPOS>MOLECULE
OR0
   58    63     1     0     0
SMALL
abcg2


@<TRIPOS>ATOM
      1 C18         -8.0920   -15.5000    10.6810 ca         1 OR0      -0.114000
      2 C4         -10.0110   -22.6220    15.2280 ca         1 OR0      -0.019000
      3 C29         -4.9930   -12.7790    12.4250 ca         1 OR0      -0.112000
      4 C28         -5.5100   -11.5100    12.6360 ca         1 OR0      -0.061000
      5 C17         -8.9650   -16.5530    10.4660 ca         1 OR0      -0.059000
      6 C3         -10.3960   -23.5650    16.1560 ca         1 OR0      -0.243000
      7 C7          -9.3210   -20.7580    12.8640 cc         1 OR0       0.260900
      8 C10        -11.3030   -19.8010    13.0110 cd         1 OR0      -0.104000
      9 C20         -9.1190   -15.1800    12.8140 ca         1 OR0      -0.112300
     10 C32         -4.4270   -15.5730    11.0800 cc         1 OR0       0.399400
     11 C19         -8.1680   -14.8060    11.8860 cp         1 OR0      -0.014000
     12 C5         -10.9560   -21.8520    14.5270 ca         1 OR0      -0.102000
     13 C6         -10.5690   -20.8600    13.5280 cc         1 OR0      -0.158000
     14 C23         -7.2440   -13.6860    12.1860 cp         1 OR0      -0.050000
     15 C30         -5.8530   -13.8450    12.2060 ca         1 OR0       0.039800
     16 C24         -7.7280   -12.4040    12.4210 ca         1 OR0       0.200000
     17 C26         -6.8840   -11.3210    12.6400 ca         1 OR0       0.079000
     18 C16         -9.9050   -16.9170    11.4120 ca         1 OR0      -0.168300
     19 C2         -11.7680   -23.7480    16.4030 ca         1 OR0       0.616900
     20 C36        -12.2710   -22.1460    14.8690 ca         1 OR0       0.603200
     21 C14        -13.5720   -19.2790     9.7970 cx         1 OR0      -0.129900
     22 C15        -12.9710   -19.7230     8.4870 cx         1 OR0      -0.129900
     23 C13        -12.1090   -19.6160     9.7130 cx         1 OR0      -0.132700
     24 C12        -11.0790   -18.5190     9.8150 c3         1 OR0      -0.055400
     25 C11        -10.8880   -18.0450    11.2590 c3         1 OR0       0.168600
     26 N8          -9.2960   -19.7350    12.0170 nd         1 OR0      -0.532800
     27 N33         -4.1890   -16.8470    11.2900 nd         1 OR0      -0.377000
     28 N38        -12.6870   -23.0270    15.7420 nb         1 OR0      -0.773000
     29 N34         -4.9300   -17.1890    12.3760 nd         1 OR0      -0.028000
     30 N35         -5.5950   -16.1840    12.8180 nc         1 OR0      -0.173800
     31 N9         -10.5100   -19.1600    12.1280 na         1 OR0       0.122800
     32 N31         -5.2950   -15.1410    12.0110 na         1 OR0      -0.020500
     33 N21         -9.9750   -16.2090    12.5870 na         1 OR0       0.452300
     34 N1         -12.2240   -24.6240    17.3480 nv         1 OR0      -1.057900
     35 O22        -10.8490   -16.5140    13.4870 o          1 OR0      -0.514000
     36 F25         -9.0530   -12.1990    12.4050 f          1 OR0      -0.144000
     37 F37        -13.2700   -21.4740    14.2420 f          1 OR0      -0.240200
     38 CL27        -7.5610    -9.7500    12.9080 cl         1 OR0      -0.145000
     39 H54         -7.3700   -15.2230     9.9270 ha         1 OR0       0.130000
     40 H57         -3.9250   -12.9460    12.4490 ha         1 OR0       0.142000
     41 H56         -4.8520   -10.6700    12.8100 ha         1 OR0       0.147000
     42 H53         -8.9180   -17.1080     9.5410 ha         1 OR0       0.143000
     43 H41         -9.6650   -24.1510    16.6940 ha         1 OR0       0.124000
     44 H43         -8.4540   -21.3920    12.9700 h4         1 OR0       0.035100
     45 H44        -12.3020   -19.4590    13.2100 h4         1 OR0       0.170000
     46 H55         -9.2430   -14.7010    13.7730 h4         1 OR0       0.178000
     47 H58         -4.0230   -14.9540    10.2970 h5         1 OR0       0.077100
     48 H50        -13.8370   -18.2340     9.8990 hc         1 OR0       0.073200
     49 H49        -14.2260   -19.9640    10.3200 hc         1 OR0       0.073200
     50 H51        -12.8390   -18.9740     7.7160 hc         1 OR0       0.073200
     51 H52        -13.2170   -20.7110     8.1200 hc         1 OR0       0.073200
     52 H48        -11.8150   -20.5560    10.1650 hc         1 OR0       0.093700
     53 H47        -10.1280   -18.8690     9.4090 hc         1 OR0       0.058700
     54 H46        -11.3950   -17.6600     9.2190 hc         1 OR0       0.058700
     55 H45        -11.8460   -17.6970    11.6450 h1         1 OR0       0.099700
     56 H39        -13.1970   -24.8840    17.2930 hn         1 OR0       0.477500
     57 H40        -11.5990   -25.3520    17.6550 hn         1 OR0       0.477500
     58 H42         -8.9570   -22.4660    15.0380 ha         1 OR0       0.122000
@<TRIPOS>BOND
     1     1     5 ar  
     2     1    11 ar  
     3     1    39 1   
     4     2     6 ar  
     5     2    12 ar  
     6     2    58 1   
     7     3     4 ar  
     8     3    15 ar  
     9     3    40 1   
    10     4    17 ar  
    11     4    41 1   
    12     5    18 ar  
    13     5    42 1   
    14     6    19 ar  
    15     6    43 1   
    16     7    13 1   
    17     7    26 2   
    18     7    44 1   
    19     8    13 2   
    20     8    31 1   
    21     8    45 1   
    22     9    11 ar  
    23     9    33 2   
    24     9    46 1   
    25    10    27 2   
    26    10    32 1   
    27    10    47 1   
    28    11    14 1   
    29    12    13 1   
    30    12    20 ar  
    31    14    15 ar  
    32    14    16 ar  
    33    15    32 1   
    34    16    17 ar  
    35    16    36 1   
    36    17    38 1   
    37    18    25 1   
    38    18    33 1   
    39    19    28 ar  
    40    19    34 1   
    41    20    28 ar  
    42    20    37 1   
    43    21    22 1   
    44    21    23 1   
    45    21    48 1   
    46    21    49 1   
    47    22    23 1   
    48    22    50 1   
    49    22    51 1   
    50    23    24 1   
    51    23    52 1   
    52    24    25 1   
    53    24    53 1   
    54    24    54 1   
    55    25    31 1   
    56    25    55 1   
    57    26    31 1   
    58    27    29 1   
    59    29    30 2   
    60    30    32 1   
    61    33    35 1   
    62    34    56 1   
    63    34    57 1   
@<TRIPOS>SUBSTRUCTURE
     1 OR0         1 TEMP              0 ****  ****    0 ROOT
