@<TRIPOS>MOLECULE
OR0
   58    63     1     0     0
SMALL
No Charge or Current Charge


@<TRIPOS>ATOM
      1 C18         -7.9070   -15.8640    10.8600 ca         1 OR0      -0.114000
      2 C4          -9.7640   -23.0540    14.6000 ca         1 OR0      -0.019000
      3 C29         -5.0890   -12.8250    12.8090 ca         1 OR0      -0.112000
      4 C28         -5.4660   -11.5360    12.3970 ca         1 OR0      -0.061000
      5 C17         -8.7890   -16.9240    10.6450 ca         1 OR0      -0.059000
      6 C3          -9.9920   -23.9240    15.6760 ca         1 OR0      -0.243000
      7 C7          -9.3870   -21.0950    12.2900 cc         1 OR0       0.260900
      8 C10        -11.1280   -19.9260    13.0050 cd         1 OR0      -0.104000
      9 C20         -9.4210   -14.9020    12.5420 ca         1 OR0      -0.112300
     10 C32         -4.7780   -16.0180    12.4360 cc         1 OR0       0.399400
     11 C19         -8.2120   -14.8550    11.7990 cp         1 OR0      -0.014000
     12 C5         -10.6320   -21.9560    14.4180 ca         1 OR0      -0.102000
     13 C6         -10.3860   -21.0410    13.2800 cc         1 OR0      -0.158000
     14 C23         -7.2590   -13.7240    12.0180 cp         1 OR0      -0.050000
     15 C30         -5.9800   -13.8950    12.6220 ca         1 OR0       0.039800
     16 C24         -7.6120   -12.4080    11.6220 ca         1 OR0       0.200000
     17 C26         -6.7250   -11.3270    11.8080 ca         1 OR0       0.079000
     18 C16         -9.9870   -16.9860    11.3800 ca         1 OR0      -0.168300
     19 C2         -11.0660   -23.6660    16.5240 ca         1 OR0       0.616900
     20 C36        -11.6910   -21.8230    15.3640 ca         1 OR0       0.603200
     21 C14        -13.9120   -18.9020     9.6190 cx         1 OR0      -0.129900
     22 C15        -13.3750   -19.2420     8.2460 cx         1 OR0      -0.129900
     23 C13        -12.4780   -19.3500     9.4570 cx         1 OR0      -0.132700
     24 C12        -11.3210   -18.3750     9.6690 c3         1 OR0      -0.055400
     25 C11        -10.9780   -18.1450    11.1660 c3         1 OR0       0.168600
     26 N8          -9.4410   -20.1130    11.4160 nd         1 OR0      -0.532800
     27 N33         -4.7470   -17.1060    13.1850 nd         1 OR0      -0.377000
     28 N38        -11.9090   -22.6630    16.3990 nb         1 OR0      -0.773000
     29 N34         -5.6350   -16.8960    14.2280 nd         1 OR0      -0.028000
     30 N35         -6.2040   -15.7190    14.1620 nc         1 OR0      -0.173800
     31 N9         -10.5370   -19.3770    11.8600 na         1 OR0       0.122800
     32 N31         -5.6910   -15.1970    13.0280 na         1 OR0      -0.020500
     33 N21        -10.2560   -16.0080    12.3530 na         1 OR0       0.452300
     34 N1         -11.3800   -24.4270    17.5700 nv         1 OR0      -1.057900
     35 O22        -11.2340   -16.1330    13.1030 o          1 OR0      -0.514000
     36 F25         -8.8160   -12.1840    11.0430 f          1 OR0      -0.144000
     37 F37        -12.5950   -20.8230    15.3000 f          1 OR0      -0.240200
     38 Cl27        -7.1780    -9.6990    11.3030 cl         1 OR0      -0.145000
     39 H54         -6.9820   -15.8120    10.2900 ha         1 OR0       0.130000
     40 H57         -4.1200   -12.9890    13.2760 ha         1 OR0       0.142000
     41 H56         -4.7870   -10.6980    12.5380 ha         1 OR0       0.147000
     42 H53         -8.5360   -17.6920     9.9170 ha         1 OR0       0.143000
     43 H41         -9.3430   -24.7780    15.8470 ha         1 OR0       0.124000
     44 H43         -8.6070   -21.8350    12.1800 h4         1 OR0       0.035100
     45 H44        -11.9850   -19.4700    13.4830 h4         1 OR0       0.170000
     46 H55         -9.7030   -14.1570    13.2820 h4         1 OR0       0.178000
     47 H58         -4.2190   -15.7880    11.5380 h5         1 OR0       0.077100
     48 H50        -14.1010   -17.8540     9.8430 hc         1 OR0       0.073200
     49 H49        -14.6110   -19.5980    10.0770 hc         1 OR0       0.073200
     50 H51        -13.2050   -18.4220     7.5520 hc         1 OR0       0.073200
     51 H52        -13.7150   -20.1650     7.7830 hc         1 OR0       0.073200
     52 H48        -12.2420   -20.3580     9.7920 hc         1 OR0       0.093700
     53 H47        -10.4390   -18.7460     9.1340 hc         1 OR0       0.058700
     54 H46        -11.5680   -17.4050     9.2190 hc         1 OR0       0.058700
     55 H45        -11.9330   -17.8670    11.6290 h1         1 OR0       0.099700
     56 H39        -12.3070   -24.2640    17.9430 hn         1 OR0       0.477500
     57 H40        -11.0570   -25.3880    17.5650 hn         1 OR0       0.477500
     58 H42         -8.9290   -23.2370    13.9280 ha         1 OR0       0.122000
@<TRIPOS>BOND
     1     1     5 ar  
     2     1    11 ar  
     3     1    39 1   
     4     2     6 ar  
     5     2    12 ar  
     6     2    58 1   
     7     3     4 ar  
     8     3    15 ar  
     9     3    40 1   
    10     4    17 ar  
    11     4    41 1   
    12     5    18 ar  
    13     5    42 1   
    14     6    19 ar  
    15     6    43 1   
    16     7    13 1   
    17     7    26 2   
    18     7    44 1   
    19     8    13 2   
    20     8    31 1   
    21     8    45 1   
    22     9    11 ar  
    23     9    33 2   
    24     9    46 1   
    25    10    27 2   
    26    10    32 1   
    27    10    47 1   
    28    11    14 1   
    29    12    13 1   
    30    12    20 ar  
    31    14    15 ar  
    32    14    16 ar  
    33    15    32 1   
    34    16    17 ar  
    35    16    36 1   
    36    17    38 1   
    37    18    25 1   
    38    18    33 1   
    39    19    28 ar  
    40    19    34 1   
    41    20    28 ar  
    42    20    37 1   
    43    21    22 1   
    44    21    23 1   
    45    21    48 1   
    46    21    49 1   
    47    22    23 1   
    48    22    50 1   
    49    22    51 1   
    50    23    24 1   
    51    23    52 1   
    52    24    25 1   
    53    24    53 1   
    54    24    54 1   
    55    25    31 1   
    56    25    55 1   
    57    26    31 1   
    58    27    29 1   
    59    29    30 2   
    60    30    32 1   
    61    33    35 1   
    62    34    56 1   
    63    34    57 1   
@<TRIPOS>SUBSTRUCTURE
     1 OR0         1 TEMP              0 ****  ****    0 ROOT
