@<TRIPOS>MOLECULE
OR1
   86    90     1     0     0
SMALL
No Charge or Current Charge


@<TRIPOS>ATOM
      1 C10         18.0800   -11.8240    29.0260 c3         1 OR1      -0.040100
      2 C13         18.3050   -14.2060    28.1490 ca         1 OR1      -0.101000
      3 C15         19.1110   -16.0100    29.5710 ca         1 OR1      -0.111000
      4 C17         18.9370   -13.7480    30.4530 ca         1 OR1      -0.101000
      5 C21         19.8880    -8.6540    33.9000 c5         1 OR1       0.161300
      6 C22         14.4950    -9.3120    34.4030 ca         1 OR1      -0.086300
      7 C24         15.0370   -10.6330    36.3850 ca         1 OR1      -0.113000
      8 C26         14.6590    -8.2390    36.5910 ca         1 OR1      -0.113000
      9 C28         20.8450    -7.4440    33.7260 c5         1 OR1       0.153600
     10 C02         15.4810    -9.6090    32.0550 c3         1 OR1       0.120700
     11 C03         15.2230    -9.4860    30.5320 c3         1 OR1      -0.123400
     12 C04         14.2440    -9.2230    32.8990 c3         1 OR1      -0.045100
     13 C05         16.4040    -9.9350    29.6300 c3         1 OR1       0.163300
     14 C06         16.7900   -11.4400    29.7930 c3         1 OR1       0.110700
     15 C08         14.9930   -13.1630    30.2670 c          1 OR1       0.604100
     16 C12         18.4550   -13.2910    29.2110 ca         1 OR1      -0.083300
     17 C14         18.6320   -15.5610    28.3290 ca         1 OR1      -0.111000
     18 C16         19.2640   -15.1030    30.6330 ca         1 OR1      -0.111000
     19 C23         14.8000   -10.5510    35.0020 ca         1 OR1      -0.103000
     20 C25         14.9670    -9.4770    37.1800 ca         1 OR1      -0.113000
     21 C27         14.4260    -8.1560    35.2070 ca         1 OR1      -0.103000
     22 C30         20.3760    -7.4130    35.9880 c5         1 OR1       0.372300
     23 C31         19.8250    -8.7870    35.4780 c5         1 OR1      -0.149700
     24 C33         18.0820    -7.3210    36.2850 c5         1 OR1       0.153600
     25 C34         18.3690    -8.8250    36.0710 c5         1 OR1      -0.098400
     26 C35         13.9410   -14.0690    29.5890 c3         1 OR1       0.070600
     27 C37         11.5500   -16.4640    25.8400 ca         1 OR1      -0.105000
     28 C38         10.9800   -15.3360    26.4530 ca         1 OR1      -0.106500
     29 C39         11.7730   -14.4680    27.2280 ca         1 OR1      -0.080800
     30 C40         13.1490   -14.7510    27.3890 ca         1 OR1       0.093100
     31 C41         13.7300   -15.8780    26.7650 ca         1 OR1      -0.080800
     32 C42         12.9200   -16.7320    25.9920 ca         1 OR1      -0.106500
     33 C44         15.2170   -16.1750    26.9220 c3         1 OR1      -0.043800
     34 N01         16.6410    -8.8090    32.4560 ns         1 OR1      -0.500900
     35 N07         15.6870   -12.3350    29.4150 ns         1 OR1      -0.480900
     36 O09         16.0480    -9.6650    28.2640 oh         1 OR1      -0.663000
     37 O11         15.1950   -13.1770    31.4750 o          1 OR1      -0.618100
     38 O19         18.1130   -10.5030    32.9350 o          1 OR1      -0.541000
     39 O20         18.6100    -8.2750    33.3090 os         1 OR1      -0.455100
     40 O29         20.5120    -6.5790    34.8260 os         1 OR1      -0.459000
     41 O32         19.3370    -6.8540    36.8120 os         1 OR1      -0.442000
     42 O36         13.9450   -13.9250    28.1480 os         1 OR1      -0.379100
     43 H101        18.9020   -11.1860    29.3730 hc         1 OR1       0.058200
     44 H102        17.9490   -11.5980    27.9610 hc         1 OR1       0.058200
     45 H131        17.9300   -13.8690    27.1850 ha         1 OR1       0.114000
     46 H151        19.3620   -17.0590    29.7100 ha         1 OR1       0.110000
     47 H171        19.0540   -13.0530    31.2820 ha         1 OR1       0.114000
     48 H211        20.3020    -9.5430    33.4030 h1         1 OR1       0.086700
     49 H241        15.2750   -11.5920    36.8400 ha         1 OR1       0.114000
     50 H261        14.6030    -7.3440    37.2060 ha         1 OR1       0.114000
     51 H282        20.7030    -6.9190    32.7720 h1         1 OR1       0.060700
     52 H021        15.6920   -10.6630    32.2800 h1         1 OR1       0.107700
     53 H032        14.9820    -8.4400    30.3060 hc         1 OR1       0.053200
     54 H031        14.3300   -10.0700    30.2750 hc         1 OR1       0.053200
     55 H042        13.9280    -8.2100    32.6240 hc         1 OR1       0.053200
     56 H041        13.4110    -9.8840    32.6290 hc         1 OR1       0.053200
     57 H051        17.2830    -9.3340    29.8990 h1         1 OR1       0.042700
     58 H061        17.0160   -11.6070    30.8530 h1         1 OR1       0.101700
     59 H141        18.5120   -16.2630    27.5060 ha         1 OR1       0.110500
     60 H161        19.6340   -15.4500    31.5950 ha         1 OR1       0.110500
     61 H231        14.8540   -11.4530    34.3960 ha         1 OR1       0.120500
     62 H251        15.1500    -9.5400    38.2510 ha         1 OR1       0.112000
     63 H271        14.1920    -7.1920    34.7620 ha         1 OR1       0.120500
     64 H301        21.3290    -7.5040    36.5280 h2         1 OR1       0.079700
     65 H311        20.4380    -9.6230    35.8320 hc         1 OR1       0.076700
     66 H331        17.2750    -7.1350    37.0050 h1         1 OR1       0.053700
     67 H332        17.8550    -6.7970    35.3470 h1         1 OR1       0.053700
     68 H341        18.3610    -9.3430    37.0360 hc         1 OR1       0.066700
     69 H342        17.6180    -9.3280    35.4560 hc         1 OR1       0.066700
     70 H351        12.9600   -13.8090    30.0040 h1         1 OR1       0.060700
     71 H352        14.1730   -15.1040    29.8690 h1         1 OR1       0.060700
     72 H371        10.9300   -17.1280    25.2420 ha         1 OR1       0.116000
     73 H381         9.9180   -15.1370    26.3220 ha         1 OR1       0.114500
     74 H421        13.3510   -17.6060    25.5080 ha         1 OR1       0.114500
     75 H442        15.8230   -15.3390    26.5530 hc         1 OR1       0.045533
     76 H443        15.4780   -16.3380    27.9750 hc         1 OR1       0.045533
     77 H441        15.5170   -17.0700    26.3650 hc         1 OR1       0.045533
     78 H011        16.5490    -7.8030    32.5070 hn         1 OR1       0.323500
     79 H071        15.4190   -12.3860    28.4390 hn         1 OR1       0.341500
     80 H091        15.8850    -8.7000    28.1930 ho         1 OR1       0.443000
     81 C18         17.8270    -9.3160    32.8990 c          1 OR1       0.640100
     82 C43         11.1300   -13.2400    27.8660 c3         1 OR1      -0.043800
     83 H281        21.8970    -7.7490    33.8110 h1         1 OR1       0.060700
     84 H432        10.8430   -13.4420    28.9040 hc         1 OR1       0.045533
     85 H433        11.8120   -12.3810    27.8640 hc         1 OR1       0.045533
     86 H431        10.2260   -12.9340    27.3260 hc         1 OR1       0.045533
@<TRIPOS>BOND
     1     1    14 1   
     2     1    16 1   
     3     1    43 1   
     4     1    44 1   
     5     2    16 ar  
     6     2    17 ar  
     7     2    45 1   
     8     3    17 ar  
     9     3    18 ar  
    10     3    46 1   
    11     4    16 ar  
    12     4    18 ar  
    13     4    47 1   
    14     5     9 1   
    15     5    23 1   
    16     5    39 1   
    17     5    48 1   
    18     6    12 1   
    19     6    19 ar  
    20     6    21 ar  
    21     7    19 ar  
    22     7    20 ar  
    23     7    49 1   
    24     8    20 ar  
    25     8    21 ar  
    26     8    50 1   
    27     9    40 1   
    28     9    51 1   
    29     9    83 1   
    30    10    11 1   
    31    10    12 1   
    32    10    34 1   
    33    10    52 1   
    34    11    13 1   
    35    11    53 1   
    36    11    54 1   
    37    12    55 1   
    38    12    56 1   
    39    13    14 1   
    40    13    36 1   
    41    13    57 1   
    42    14    35 1   
    43    14    58 1   
    44    15    26 1   
    45    15    35 1   
    46    15    37 2   
    47    17    59 1   
    48    18    60 1   
    49    19    61 1   
    50    20    62 1   
    51    21    63 1   
    52    22    23 1   
    53    22    40 1   
    54    22    41 1   
    55    22    64 1   
    56    23    25 1   
    57    23    65 1   
    58    24    25 1   
    59    24    41 1   
    60    24    66 1   
    61    24    67 1   
    62    25    68 1   
    63    25    69 1   
    64    26    42 1   
    65    26    70 1   
    66    26    71 1   
    67    27    28 ar  
    68    27    32 ar  
    69    27    72 1   
    70    28    29 ar  
    71    28    73 1   
    72    29    30 ar  
    73    29    82 1   
    74    30    31 ar  
    75    30    42 1   
    76    31    32 ar  
    77    31    33 1   
    78    32    74 1   
    79    33    75 1   
    80    33    76 1   
    81    33    77 1   
    82    34    78 1   
    83    34    81 1   
    84    35    79 1   
    85    36    80 1   
    86    38    81 2   
    87    39    81 1   
    88    82    84 1   
    89    82    85 1   
    90    82    86 1   
@<TRIPOS>SUBSTRUCTURE
     1 OR1         1 TEMP              0 ****  ****    0 ROOT
