@<TRIPOS>MOLECULE
OR1
   86    90     1     0     0
SMALL
bcc


@<TRIPOS>ATOM
      1 C10         18.2400   -11.8640    28.8560 c3         1 OR1      -0.040100
      2 C13         18.3210   -14.2990    28.2170 ca         1 OR1      -0.119000
      3 C15         19.2340   -15.9630    29.6940 ca         1 OR1      -0.129000
      4 C17         19.2190   -13.6440    30.3370 ca         1 OR1      -0.119000
      5 C21         19.8230    -8.6910    34.0910 c5         1 OR1       0.138100
      6 C22         14.5500    -9.5960    34.1100 ca         1 OR1      -0.086300
      7 C24         14.9800   -11.0720    35.9780 ca         1 OR1      -0.131000
      8 C26         14.5410    -8.7480    36.3760 ca         1 OR1      -0.131000
      9 C28         20.8280    -7.5740    33.8950 c5         1 OR1       0.130400
     10 C02         15.6770    -9.7070    31.8550 c3         1 OR1       0.120700
     11 C03         15.4710    -9.5390    30.3520 c3         1 OR1      -0.123400
     12 C04         14.3960    -9.3850    32.6300 c3         1 OR1      -0.045100
     13 C05         16.6600    -9.9730    29.4980 c3         1 OR1       0.140100
     14 C06         17.0030   -11.4530    29.6650 c3         1 OR1       0.110700
     15 C08         15.2670   -13.1170    30.1830 c          1 OR1       0.671100
     16 C12         18.6140   -13.2930    29.1310 ca         1 OR1      -0.083300
     17 C14         18.6280   -15.6260    28.4920 ca         1 OR1      -0.129000
     18 C16         19.5290   -14.9670    30.6170 ca         1 OR1      -0.129000
     19 C23         14.8400   -10.8640    34.6140 ca         1 OR1      -0.121000
     20 C25         14.8280   -10.0130    36.8660 ca         1 OR1      -0.131000
     21 C27         14.4100    -8.5430    35.0080 ca         1 OR1      -0.121000
     22 C30         19.9740    -7.1640    35.9740 c5         1 OR1       0.325900
     23 C31         19.5610    -8.6080    35.6030 c5         1 OR1      -0.149700
     24 C33         17.6810    -7.2280    36.0910 c5         1 OR1       0.130400
     25 C34         18.1130    -8.6870    36.0870 c5         1 OR1      -0.098400
     26 C35         14.1720   -13.9940    29.6090 c3         1 OR1       0.047400
     27 C37         11.2550   -16.1960    26.3420 ca         1 OR1      -0.123000
     28 C38         10.7950   -15.0490    26.9700 ca         1 OR1      -0.124500
     29 C39         11.6730   -14.1910    27.6270 ca         1 OR1      -0.080800
     30 C40         13.0280   -14.5230    27.6320 ca         1 OR1       0.093100
     31 C41         13.5210   -15.6620    26.9950 ca         1 OR1      -0.080800
     32 C42         12.6090   -16.4940    26.3500 ca         1 OR1      -0.124500
     33 C44         14.9900   -15.9680    26.9820 c3         1 OR1      -0.043800
     34 N01         16.7700    -8.8840    32.3290 ns         1 OR1      -0.567900
     35 N07         15.8790   -12.2970    29.3240 ns         1 OR1      -0.547900
     36 O09         16.4010    -9.7540    28.1260 oh         1 OR1      -0.600800
     37 O11         15.5280   -13.2120    31.3740 o          1 OR1      -0.618100
     38 O19         18.1480   -10.5510    33.0410 o          1 OR1      -0.590000
     39 O20         18.6660    -8.3720    33.3240 os         1 OR1      -0.431900
     40 O29         20.4270    -6.5550    34.7860 os         1 OR1      -0.412600
     41 O32         18.8540    -6.5090    36.4640 os         1 OR1      -0.395600
     42 O36         13.9100   -13.6790    28.2570 os         1 OR1      -0.355900
     43 H101        19.0640   -11.1980    29.1290 hc         1 OR1       0.058200
     44 H102        18.0590   -11.7220    27.7880 hc         1 OR1       0.058200
     45 H131        17.8510   -14.0390    27.2760 ha         1 OR1       0.132000
     46 H151        19.4760   -16.9960    29.9120 ha         1 OR1       0.128000
     47 H171        19.4410   -12.8730    31.0670 ha         1 OR1       0.132000
     48 H211        20.2230    -9.6590    33.7910 h1         1 OR1       0.086700
     49 H241        15.2050   -12.0630    36.3500 ha         1 OR1       0.132000
     50 H261        14.4240    -7.9150    37.0580 ha         1 OR1       0.132000
     51 H282        20.8500    -7.1790    32.8780 h1         1 OR1       0.060700
     52 H021        15.9410   -10.7420    32.0690 h1         1 OR1       0.107700
     53 H032        15.2530    -8.4850    30.1420 hc         1 OR1       0.053200
     54 H031        14.5840   -10.1020    30.0470 hc         1 OR1       0.053200
     55 H042        14.0900    -8.3540    32.4270 hc         1 OR1       0.053200
     56 H041        13.5970   -10.0240    32.2420 hc         1 OR1       0.053200
     57 H051        17.5460    -9.4050    29.8170 h1         1 OR1       0.042700
     58 H061        17.2320   -11.6260    30.7160 h1         1 OR1       0.101700
     59 H141        18.3950   -16.3950    27.7670 ha         1 OR1       0.128500
     60 H161        20.0030   -15.2230    31.5570 ha         1 OR1       0.128500
     61 H231        14.9490   -11.6990    33.9310 ha         1 OR1       0.138500
     62 H251        14.9350   -10.1750    37.9310 ha         1 OR1       0.130000
     63 H271        14.1840    -7.5500    34.6350 ha         1 OR1       0.138500
     64 H301        20.7580    -7.1110    36.7370 h2         1 OR1       0.079700
     65 H311        20.1950    -9.3400    36.1030 hc         1 OR1       0.076700
     66 H331        16.9040    -7.0100    36.8230 h1         1 OR1       0.053700
     67 H332        17.3170    -6.9140    35.1080 h1         1 OR1       0.053700
     68 H341        18.0940    -9.0840    37.1030 hc         1 OR1       0.066700
     69 H342        17.4590    -9.3190    35.4880 hc         1 OR1       0.066700
     70 H351        13.2790   -13.8680    30.2310 h1         1 OR1       0.060700
     71 H352        14.4960   -15.0350    29.7220 h1         1 OR1       0.060700
     72 H371        10.5590   -16.8530    25.8360 ha         1 OR1       0.134000
     73 H381         9.7380   -14.8090    26.9500 ha         1 OR1       0.132500
     74 H421        12.9700   -17.3850    25.8500 ha         1 OR1       0.132500
     75 H442        15.5750   -15.1180    26.6290 hc         1 OR1       0.045533
     76 H443        15.3700   -16.2230    27.9730 hc         1 OR1       0.045533
     77 H441        15.2000   -16.8120    26.3280 hc         1 OR1       0.045533
     78 H011        16.6500    -7.8830    32.3050 hn         1 OR1       0.323500
     79 H071        15.5770   -12.3100    28.3610 hn         1 OR1       0.341500
     80 H091        16.2280    -8.8170    27.9920 ho         1 OR1       0.404000
     81 C18         17.8750    -9.3750    32.9120 c          1 OR1       0.756100
     82 C43         11.1820   -12.9350    28.2860 c3         1 OR1      -0.043800
     83 H281        21.8310    -7.9470    34.1370 h1         1 OR1       0.060700
     84 H432        11.3250   -12.9530    29.3680 hc         1 OR1       0.045533
     85 H433        11.7000   -12.0530    27.9100 hc         1 OR1       0.045533
     86 H431        10.1170   -12.8000    28.1040 hc         1 OR1       0.045533
@<TRIPOS>BOND
     1     1    14 1   
     2     1    16 1   
     3     1    43 1   
     4     1    44 1   
     5     2    16 ar  
     6     2    17 ar  
     7     2    45 1   
     8     3    17 ar  
     9     3    18 ar  
    10     3    46 1   
    11     4    16 ar  
    12     4    18 ar  
    13     4    47 1   
    14     5     9 1   
    15     5    23 1   
    16     5    39 1   
    17     5    48 1   
    18     6    12 1   
    19     6    19 ar  
    20     6    21 ar  
    21     7    19 ar  
    22     7    20 ar  
    23     7    49 1   
    24     8    20 ar  
    25     8    21 ar  
    26     8    50 1   
    27     9    40 1   
    28     9    51 1   
    29     9    83 1   
    30    10    11 1   
    31    10    12 1   
    32    10    34 1   
    33    10    52 1   
    34    11    13 1   
    35    11    53 1   
    36    11    54 1   
    37    12    55 1   
    38    12    56 1   
    39    13    14 1   
    40    13    36 1   
    41    13    57 1   
    42    14    35 1   
    43    14    58 1   
    44    15    26 1   
    45    15    35 1   
    46    15    37 2   
    47    17    59 1   
    48    18    60 1   
    49    19    61 1   
    50    20    62 1   
    51    21    63 1   
    52    22    23 1   
    53    22    40 1   
    54    22    41 1   
    55    22    64 1   
    56    23    25 1   
    57    23    65 1   
    58    24    25 1   
    59    24    41 1   
    60    24    66 1   
    61    24    67 1   
    62    25    68 1   
    63    25    69 1   
    64    26    42 1   
    65    26    70 1   
    66    26    71 1   
    67    27    28 ar  
    68    27    32 ar  
    69    27    72 1   
    70    28    29 ar  
    71    28    73 1   
    72    29    30 ar  
    73    29    82 1   
    74    30    31 ar  
    75    30    42 1   
    76    31    32 ar  
    77    31    33 1   
    78    32    74 1   
    79    33    75 1   
    80    33    76 1   
    81    33    77 1   
    82    34    78 1   
    83    34    81 1   
    84    35    79 1   
    85    36    80 1   
    86    38    81 2   
    87    39    81 1   
    88    82    84 1   
    89    82    85 1   
    90    82    86 1   
@<TRIPOS>SUBSTRUCTURE
     1 OR1         1 TEMP              0 ****  ****    0 ROOT
