@<TRIPOS>MOLECULE
OR4
   34    36     1     0     0
SMALL
No Charge or Current Charge


@<TRIPOS>ATOM
      1 C02         -5.2390     1.1640    -0.1790 c          1 OR4       0.722000
      2 C04         -4.8030     0.0650     0.8040 c3         1 OR4      -0.170200
      3 C05         -3.6370    -0.7310     0.2780 cc         1 OR4      -0.015400
      4 C06         -3.6500    -1.9720    -0.3490 cd         1 OR4      -0.144900
      5 C08         -1.5140    -1.4010    -0.2580 ca         1 OR4       0.090100
      6 C09         -0.1220    -1.3780    -0.3760 ca         1 OR4      -0.167000
      7 C10          0.5600    -0.2530     0.1300 ca         1 OR4       0.137100
      8 C12          2.7260     0.8660     0.4950 c3         1 OR4       0.212900
      9 C13          4.1920     0.5670     0.2100 ca         1 OR4      -0.082300
     10 C14          4.7770     0.9720    -1.0070 ca         1 OR4      -0.085500
     11 C15          6.1310     0.6970    -1.2690 ca         1 OR4      -0.119500
     12 C16          6.9080     0.0170    -0.3170 ca         1 OR4      -0.110000
     13 C17          6.3300    -0.3900     0.8970 ca         1 OR4      -0.119500
     14 C18          4.9770    -0.1170     1.1600 ca         1 OR4      -0.085500
     15 C19         -0.1700     0.8100     0.7340 ca         1 OR4      -0.238000
     16 C20         -1.5790     0.7510     0.8350 ca         1 OR4       0.013000
     17 C21         -2.2270    -0.3820     0.3240 ca         1 OR4      -0.114800
     18 O01         -6.0310     0.8640    -1.0600 o          1 OR4      -0.726500
     19 O03         -4.6890     2.2530    -0.1070 o          1 OR4      -0.726500
     20 O07         -2.3740    -2.3680    -0.6690 os         1 OR4      -0.198200
     21 O11          1.9330    -0.2330     0.0140 os         1 OR4      -0.354100
     22 H1          -4.4670     0.5180     1.7440 hc         1 OR4       0.032700
     23 H2          -5.6210    -0.6510     0.9430 hc         1 OR4       0.032700
     24 H3          -4.4720    -2.6340    -0.6040 h4         1 OR4       0.223000
     25 H4           0.4150    -2.1990    -0.8410 ha         1 OR4       0.126000
     26 H5           2.5840     1.0010     1.5760 h1         1 OR4       0.039200
     27 H6           2.4390     1.7990    -0.0060 h1         1 OR4       0.039200
     28 H7           4.1800     1.4970    -1.7500 ha         1 OR4       0.117000
     29 H8           6.5760     1.0120    -2.2100 ha         1 OR4       0.107500
     30 H9           7.9550    -0.1950    -0.5200 ha         1 OR4       0.104000
     31 H10          6.9310    -0.9190     1.6350 ha         1 OR4       0.107500
     32 H11          4.5360    -0.4370     2.1020 ha         1 OR4       0.117000
     33 H12          0.3350     1.6860     1.1290 ha         1 OR4       0.103000
     34 H13         -2.1440     1.5600     1.2930 ha         1 OR4       0.134000
@<TRIPOS>BOND
     1     1     2 1   
     2     1    18 1   
     3     1    19 1   
     4     2     3 1   
     5     2    22 1   
     6     2    23 1   
     7     3     4 2   
     8     3    17 1   
     9     4    20 1   
    10     4    24 1   
    11     5     6 ar  
    12     5    17 ar  
    13     5    20 1   
    14     6     7 ar  
    15     6    25 1   
    16     7    15 ar  
    17     7    21 1   
    18     8     9 1   
    19     8    21 1   
    20     8    26 1   
    21     8    27 1   
    22     9    10 ar  
    23     9    14 ar  
    24    10    11 ar  
    25    10    28 1   
    26    11    12 ar  
    27    11    29 1   
    28    12    13 ar  
    29    12    30 1   
    30    13    14 ar  
    31    13    31 1   
    32    14    32 1   
    33    15    16 ar  
    34    15    33 1   
    35    16    17 ar  
    36    16    34 1   
@<TRIPOS>SUBSTRUCTURE
     1 OR4         1 TEMP              0 ****  ****    0 ROOT
