@<TRIPOS>MOLECULE
OR4
   34    36     1     0     0
SMALL
abcg2


@<TRIPOS>ATOM
      1 C02         -5.0690     1.2710    -0.0530 c          1 OR4       0.722000
      2 C04         -4.7480     0.0280     0.8120 c3         1 OR4      -0.170200
      3 C05         -3.5710    -0.7580     0.3610 cc         1 OR4      -0.015400
      4 C06         -3.5420    -2.0210    -0.1070 cd         1 OR4      -0.144900
      5 C08         -1.4540    -1.4110    -0.1260 ca         1 OR4       0.090100
      6 C09         -0.0820    -1.3960    -0.2860 ca         1 OR4      -0.167000
      7 C10          0.5760    -0.2210     0.0700 ca         1 OR4       0.137100
      8 C12          2.6710     0.8920     0.3340 c3         1 OR4       0.212900
      9 C13          4.1180     0.5710     0.1130 ca         1 OR4      -0.082300
     10 C14          4.7890     1.0510    -1.0070 ca         1 OR4      -0.085500
     11 C15          6.1250     0.7360    -1.2190 ca         1 OR4      -0.119500
     12 C16          6.8000    -0.0690    -0.3120 ca         1 OR4      -0.110000
     13 C17          6.1360    -0.5550     0.8080 ca         1 OR4      -0.119500
     14 C18          4.8030    -0.2360     1.0180 ca         1 OR4      -0.085500
     15 C19         -0.1380     0.8820     0.5680 ca         1 OR4      -0.238000
     16 C20         -1.5170     0.8310     0.7080 ca         1 OR4       0.013000
     17 C21         -2.1940    -0.3320     0.3620 ca         1 OR4      -0.114800
     18 O01         -4.4060     1.4410    -1.0910 o          1 OR4      -0.726500
     19 O03         -5.9870     1.9950     0.3800 o          1 OR4      -0.726500
     20 O07         -2.2730    -2.4420    -0.4140 os         1 OR4      -0.198200
     21 O11          1.9170    -0.2280    -0.1060 os         1 OR4      -0.354100
     22 H1          -4.5980     0.3580     1.8450 hc         1 OR4       0.032700
     23 H2          -5.6340    -0.6130     0.8350 hc         1 OR4       0.032700
     24 H3          -4.3270    -2.7420    -0.2770 h4         1 OR4       0.223000
     25 H4           0.4640    -2.2470    -0.6720 ha         1 OR4       0.126000
     26 H5           2.4790     1.0860     1.3950 h1         1 OR4       0.039200
     27 H6           2.3890     1.7900    -0.2250 h1         1 OR4       0.039200
     28 H7           4.2650     1.6790    -1.7180 ha         1 OR4       0.117000
     29 H8           6.6370     1.1190    -2.0920 ha         1 OR4       0.107500
     30 H9           7.8420    -0.3150    -0.4740 ha         1 OR4       0.104000
     31 H10          6.6600    -1.1790     1.5210 ha         1 OR4       0.107500
     32 H11          4.2910    -0.6120     1.8960 ha         1 OR4       0.117000
     33 H12          0.3730     1.7930     0.8450 ha         1 OR4       0.103000
     34 H13         -2.0470     1.6930     1.0900 ha         1 OR4       0.134000
@<TRIPOS>BOND
     1     1     2 1   
     2     1    18 1   
     3     1    19 1   
     4     2     3 1   
     5     2    22 1   
     6     2    23 1   
     7     3     4 2   
     8     3    17 1   
     9     4    20 1   
    10     4    24 1   
    11     5     6 ar  
    12     5    17 ar  
    13     5    20 1   
    14     6     7 ar  
    15     6    25 1   
    16     7    15 ar  
    17     7    21 1   
    18     8     9 1   
    19     8    21 1   
    20     8    26 1   
    21     8    27 1   
    22     9    10 ar  
    23     9    14 ar  
    24    10    11 ar  
    25    10    28 1   
    26    11    12 ar  
    27    11    29 1   
    28    12    13 ar  
    29    12    30 1   
    30    13    14 ar  
    31    13    31 1   
    32    14    32 1   
    33    15    16 ar  
    34    15    33 1   
    35    16    17 ar  
    36    16    34 1   
@<TRIPOS>SUBSTRUCTURE
     1 OR4         1 TEMP              0 ****  ****    0 ROOT
