@<TRIPOS>MOLECULE
OR6
   25    24     1     0     0
SMALL
No Charge or Current Charge


@<TRIPOS>ATOM
      1 C1          -1.5860    23.3160    35.4600 ce         1 OR6      -0.092400
      2 O1           0.0100    20.2960    34.9850 o          1 OR6      -0.753000
      3 C2          -1.7920    21.7830    35.4750 c3         1 OR6      -0.161500
      4 O2           0.0160    21.1990    36.9330 o          1 OR6      -0.753000
      5 C3          -1.7400    24.0490    36.6000 c2         1 OR6      -0.408000
      6 C4          -1.2110    23.9790    34.1260 c          1 OR6       0.708200
      7 O3          -1.0640    23.2900    33.1260 o          1 OR6      -0.752000
      8 C5          -0.4880    21.0260    35.8310 c          1 OR6       0.727000
      9 O4          -1.0590    25.1940    34.0930 o          1 OR6      -0.752000
     10 C6          -3.0000    21.3140    36.3390 c3         1 OR6      -0.041400
     11 C7          -3.3830    19.8290    36.1310 c3         1 OR6      -0.075400
     12 C8          -4.6030    19.3970    36.9740 c3         1 OR6      -0.077400
     13 C9          -4.9870    17.9190    36.7680 c3         1 OR6      -0.083100
     14 H2          -2.0500    21.4680    34.4580 hc         1 OR6       0.068700
     15 H4          -1.9950    23.5940    37.5550 ha         1 OR6       0.123500
     16 H5          -1.6030    25.1300    36.6080 ha         1 OR6       0.123500
     17 H8          -2.7830    21.4720    37.4020 hc         1 OR6       0.014200
     18 H9          -3.8700    21.9360    36.0950 hc         1 OR6       0.014200
     19 H10         -3.6020    19.6570    35.0700 hc         1 OR6       0.043700
     20 H11         -2.5290    19.1920    36.3900 hc         1 OR6       0.043700
     21 H12         -4.3890    19.5640    38.0370 hc         1 OR6       0.021700
     22 H13         -5.4640    20.0260    36.7180 hc         1 OR6       0.021700
     23 H14         -5.8550    17.6600    37.3850 hc         1 OR6       0.013367
     24 H15         -5.2420    17.7270    35.7190 hc         1 OR6       0.013367
     25 H16         -4.1570    17.2600    37.0500 hc         1 OR6       0.013367
@<TRIPOS>BOND
     1     1     3 1   
     2     1     5 2   
     3     1     6 1   
     4     2     8 1   
     5     3     8 1   
     6     3    10 1   
     7     3    14 1   
     8     4     8 1   
     9     5    15 1   
    10     5    16 1   
    11     6     7 1   
    12     6     9 1   
    13    10    11 1   
    14    10    17 1   
    15    10    18 1   
    16    11    12 1   
    17    11    19 1   
    18    11    20 1   
    19    12    13 1   
    20    12    21 1   
    21    12    22 1   
    22    13    23 1   
    23    13    24 1   
    24    13    25 1   
@<TRIPOS>SUBSTRUCTURE
     1 OR6         1 TEMP              0 ****  ****    0 ROOT
