@<TRIPOS>MOLECULE
OR6
   25    24     1     0     0
SMALL
abcg2


@<TRIPOS>ATOM
      1 C1          -1.6350    23.2860    35.4700 ce         1 OR6      -0.092400
      2 O1          -0.0250    20.4170    34.7740 o          1 OR6      -0.753000
      3 C2          -1.8950    21.7990    35.4220 c3         1 OR6      -0.161500
      4 O2          -0.1510    21.0610    36.9150 o          1 OR6      -0.753000
      5 C3          -1.9830    24.0650    36.4950 c2         1 OR6      -0.408000
      6 C4          -0.9660    23.9210    34.2440 c          1 OR6       0.708200
      7 O3          -1.2200    23.3960    33.1280 o          1 OR6      -0.752000
      8 C5          -0.5700    21.0250    35.7310 c          1 OR6       0.727000
      9 O4          -0.2380    24.9300    34.4290 o          1 OR6      -0.752000
     10 C6          -3.0240    21.3220    36.3390 c3         1 OR6      -0.041400
     11 C7          -3.3810    19.8500    36.1410 c3         1 OR6      -0.075400
     12 C8          -4.5390    19.3910    37.0240 c3         1 OR6      -0.077400
     13 C9          -4.9050    17.9230    36.8190 c3         1 OR6      -0.083100
     14 H2          -2.1540    21.5580    34.3920 hc         1 OR6       0.068700
     15 H4          -2.5080    23.6820    37.3610 ha         1 OR6       0.123500
     16 H5          -1.7500    25.1220    36.4860 ha         1 OR6       0.123500
     17 H8          -2.7440    21.4840    37.3830 hc         1 OR6       0.014200
     18 H9          -3.9130    21.9340    36.1510 hc         1 OR6       0.014200
     19 H10         -3.6390    19.6780    35.0900 hc         1 OR6       0.043700
     20 H11         -2.5040    19.2270    36.3470 hc         1 OR6       0.043700
     21 H12         -4.2780    19.5600    38.0750 hc         1 OR6       0.021700
     22 H13         -5.4140    20.0180    36.8220 hc         1 OR6       0.021700
     23 H14         -5.7340    17.6220    37.4630 hc         1 OR6       0.013367
     24 H15         -5.2020    17.7350    35.7830 hc         1 OR6       0.013367
     25 H16         -4.0550    17.2730    37.0420 hc         1 OR6       0.013367
@<TRIPOS>BOND
     1     1     3 1   
     2     1     5 2   
     3     1     6 1   
     4     2     8 1   
     5     3     8 1   
     6     3    10 1   
     7     3    14 1   
     8     4     8 1   
     9     5    15 1   
    10     5    16 1   
    11     6     7 1   
    12     6     9 1   
    13    10    11 1   
    14    10    17 1   
    15    10    18 1   
    16    11    12 1   
    17    11    19 1   
    18    11    20 1   
    19    12    13 1   
    20    12    21 1   
    21    12    22 1   
    22    13    23 1   
    23    13    24 1   
    24    13    25 1   
@<TRIPOS>SUBSTRUCTURE
     1 OR6         1 TEMP              0 ****  ****    0 ROOT
