@<TRIPOS>MOLECULE
OR7
   37    37     1     0     0
SMALL
No Charge or Current Charge


@<TRIPOS>ATOM
      1 CAA          4.7630     1.2390    -0.6120 c3         1 OR7       0.013600
      2 CAC          3.8240     0.3150     0.1800 c          1 OR7       0.601100
      3 OAD          4.2100    -0.3680     1.1230 o          1 OR7      -0.538100
      4 NAE          2.5100     0.3410    -0.2740 ns         1 OR7      -0.163000
      5 CAF          1.3360    -0.3440     0.1470 ca         1 OR7      -0.048000
      6 CAH          0.1190     0.0210    -0.4590 ca         1 OR7      -0.077000
      7 CAG          1.3310    -1.3570     1.1290 ca         1 OR7      -0.064000
      8 CAI          0.1270    -1.9850     1.4860 ca         1 OR7      -0.101000
      9 CAK         -1.0880    -1.6110     0.8880 ca         1 OR7       0.188000
     10 ClA         -2.5290    -2.5070     1.3710 cl         1 OR7      -0.159000
     11 CAJ         -1.1020    -0.5840    -0.0820 ca         1 OR7      -0.238500
     12 SAM         -2.6220    -0.0430    -0.8970 sy         1 OR7       1.197600
     13 OAN         -2.6140    -0.6450    -2.2360 o          1 OR7      -0.530500
     14 OAO         -3.7950    -0.1800    -0.0260 o          1 OR7      -0.530500
     15 NAP         -2.3800     1.6360    -1.1370 n3         1 OR7      -0.807500
     16 CAQ         -3.0450     2.1510    -2.3540 c3         1 OR7       0.217100
     17 CAR         -2.6840     2.4930     0.0510 c3         1 OR7       0.233800
     18 CAS         -1.8520     2.2650     1.3470 c3         1 OR7       0.131600
     19 OAT         -0.4770     2.6310     1.1070 os         1 OR7      -0.464000
     20 CAU          0.4050     2.3940     2.2160 c3         1 OR7       0.138900
     21 H1           4.7630     0.9220    -1.6620 h1         1 OR7       0.079700
     22 H2           4.3820     2.2650    -0.5490 h1         1 OR7       0.079700
     23 H4           2.3560     0.9710    -1.0520 hn         1 OR7       0.156000
     24 H5           0.1200     0.8020    -1.2170 ha         1 OR7       0.140000
     25 H6           2.2450    -1.6830     1.6160 ha         1 OR7       0.146000
     26 H7           0.1350    -2.7760     2.2310 ha         1 OR7       0.136000
     27 H8          -4.1340     2.0150    -2.2990 h1         1 OR7       0.048700
     28 H9          -2.8440     3.2230    -2.4840 h1         1 OR7       0.048700
     29 H10         -2.6790     1.6450    -3.2570 h1         1 OR7       0.048700
     30 H11         -2.5440     3.5490    -0.2180 h1         1 OR7       0.071700
     31 H12         -3.7450     2.3940     0.3190 h1         1 OR7       0.071700
     32 H13         -2.2720     2.8930     2.1430 h1         1 OR7       0.040200
     33 H14         -1.9360     1.2220     1.6770 h1         1 OR7       0.040200
     34 H15          0.0950     2.9760     3.0930 h1         1 OR7       0.031033
     35 H16          0.4100     1.3300     2.4890 h1         1 OR7       0.031033
     36 H17          1.4310     2.6840     1.9570 h1         1 OR7       0.031033
     37 Cl1          6.4960     1.2470    -0.0280 cl         1 OR7      -0.206000
@<TRIPOS>BOND
     1     1     2 1   
     2     1    21 1   
     3     1    22 1   
     4     1    37 1   
     5     2     3 2   
     6     2     4 1   
     7     4     5 1   
     8     4    23 1   
     9     5     6 ar  
    10     5     7 ar  
    11     6    11 ar  
    12     6    24 1   
    13     7     8 ar  
    14     7    25 1   
    15     8     9 ar  
    16     8    26 1   
    17     9    10 1   
    18     9    11 ar  
    19    11    12 1   
    20    12    13 2   
    21    12    14 2   
    22    12    15 1   
    23    15    16 1   
    24    15    17 1   
    25    16    27 1   
    26    16    28 1   
    27    16    29 1   
    28    17    18 1   
    29    17    30 1   
    30    17    31 1   
    31    18    19 1   
    32    18    32 1   
    33    18    33 1   
    34    19    20 1   
    35    20    34 1   
    36    20    35 1   
    37    20    36 1   
@<TRIPOS>SUBSTRUCTURE
     1 OR7         1 TEMP              0 ****  ****    0 ROOT
