@<TRIPOS>MOLECULE
OR7
   37    37     1     0     0
SMALL
abcg2


@<TRIPOS>ATOM
      1 CAA          4.3000     1.4110     0.2240 c3         1 OR7       0.013600
      2 CAC          3.4120     0.2210     0.5480 c          1 OR7       0.601100
      3 OAD          3.7100    -0.6400     1.3420 o          1 OR7      -0.538100
      4 NAE          2.2400     0.2640    -0.1400 ns         1 OR7      -0.163000
      5 CAF          1.1500    -0.5990     0.0210 ca         1 OR7      -0.048000
      6 CAH         -0.1220    -0.0630    -0.1590 ca         1 OR7      -0.077000
      7 CAG          1.2820    -1.9490     0.3290 ca         1 OR7      -0.064000
      8 CAI          0.1520    -2.7400     0.4590 ca         1 OR7      -0.101000
      9 CAK         -1.1120    -2.2050     0.2830 ca         1 OR7       0.188000
     10 CLA         -2.4860    -3.2310     0.4730 cl         1 OR7      -0.159000
     11 CAJ         -1.2480    -0.8570    -0.0330 ca         1 OR7      -0.238500
     12 SAM         -2.8740    -0.1310    -0.2130 sy         1 OR7       1.197600
     13 OAN         -3.5080    -0.8090    -1.3300 o          1 OR7      -0.530500
     14 OAO         -3.4930    -0.1710     1.1020 o          1 OR7      -0.530500
     15 NAP         -2.6160     1.4230    -0.6080 n3         1 OR7      -0.807500
     16 CAQ         -2.3740     1.7750    -2.0020 c3         1 OR7       0.217100
     17 CAR         -2.8150     2.4960     0.3650 c3         1 OR7       0.233800
     18 CAS         -1.6090     2.7760     1.2330 c3         1 OR7       0.131600
     19 OAT         -0.5300     3.1720     0.4230 os         1 OR7      -0.464000
     20 CAU          0.6490     3.3870     1.1590 c3         1 OR7       0.138900
     21 H1           4.3930     1.5430    -0.8540 h1         1 OR7       0.079700
     22 H2           3.8620     2.3200     0.6380 h1         1 OR7       0.079700
     23 H4           2.0910     1.0470    -0.7590 hn         1 OR7       0.156000
     24 H5          -0.2290     0.9930    -0.3750 ha         1 OR7       0.140000
     25 H6           2.2510    -2.4030     0.4570 ha         1 OR7       0.146000
     26 H7           0.2630    -3.7890     0.6960 ha         1 OR7       0.136000
     27 H8          -3.2940     2.0850    -2.5010 h1         1 OR7       0.048700
     28 H9          -1.6570     2.5920    -2.0390 h1         1 OR7       0.048700
     29 H10         -1.9460     0.9400    -2.5520 h1         1 OR7       0.048700
     30 H11         -3.0800     3.3850    -0.2080 h1         1 OR7       0.071700
     31 H12         -3.6680     2.2830     1.0080 h1         1 OR7       0.071700
     32 H13         -1.8730     3.5660     1.9500 h1         1 OR7       0.040200
     33 H14         -1.3510     1.8860     1.8250 h1         1 OR7       0.040200
     34 H15          0.5160     4.1550     1.9290 h1         1 OR7       0.031033
     35 H16          0.9950     2.4710     1.6560 h1         1 OR7       0.031033
     36 H17          1.4200     3.7250     0.4670 h1         1 OR7       0.031033
     37 CL1          5.9170     1.2130     0.9120 cl         1 OR7      -0.206000
@<TRIPOS>BOND
     1     1     2 1   
     2     1    21 1   
     3     1    22 1   
     4     1    37 1   
     5     2     3 2   
     6     2     4 1   
     7     4     5 1   
     8     4    23 1   
     9     5     6 ar  
    10     5     7 ar  
    11     6    11 ar  
    12     6    24 1   
    13     7     8 ar  
    14     7    25 1   
    15     8     9 ar  
    16     8    26 1   
    17     9    10 1   
    18     9    11 ar  
    19    11    12 1   
    20    12    13 2   
    21    12    14 2   
    22    12    15 1   
    23    15    16 1   
    24    15    17 1   
    25    16    27 1   
    26    16    28 1   
    27    16    29 1   
    28    17    18 1   
    29    17    30 1   
    30    17    31 1   
    31    18    19 1   
    32    18    32 1   
    33    18    33 1   
    34    19    20 1   
    35    20    34 1   
    36    20    35 1   
    37    20    36 1   
@<TRIPOS>SUBSTRUCTURE
     1 OR7         1 TEMP              0 ****  ****    0 ROOT
