@<TRIPOS>MOLECULE
OR9
   37    40     1     0     0
SMALL
No Charge or Current Charge


@<TRIPOS>ATOM
      1 C01         93.0190   107.2360    78.0110 c6         1 OR9       0.223800
      2 C02         91.8750   107.5870    77.0380 ca         1 OR9      -0.067300
      3 C03         92.4060   106.8580    79.3700 c6         1 OR9      -0.026100
      4 C04         92.0050   107.2610    75.6650 ca         1 OR9      -0.067300
      5 C05         94.4120   106.5240    76.1270 c6         1 OR9       0.166800
      6 C06         93.2240   106.4970    75.1500 c6         1 OR9      -0.029100
      7 C07         90.7280   108.2970    77.5070 ca         1 OR9      -0.018000
      8 C08         91.4170   107.9180    79.8380 ca         1 OR9      -0.066300
      9 C09         90.6040   108.6220    78.9050 ca         1 OR9      -0.040000
     10 C11         90.9990   107.6090    74.7540 ca         1 OR9      -0.107000
     11 C12         89.7220   108.6150    76.5540 ca         1 OR9      -0.082000
     12 C13         91.3040   108.1420    81.2240 ca         1 OR9      -0.111000
     13 C14         89.7130   109.6090    79.4430 ca         1 OR9       0.137100
     14 C15         89.8590   108.2800    75.2000 ca         1 OR9      -0.114000
     15 C16         89.6200   109.8260    80.8350 ca         1 OR9       0.036100
     16 C17         90.4040   109.0870    81.7240 ca         1 OR9      -0.152000
     17 N01         93.9760   106.1960    77.5040 n3         1 OR9      -0.709600
     18 O01         88.9800   110.4700    78.6780 oh         1 OR9      -0.531100
     19 O02         88.7700   110.7880    81.3200 oh         1 OR9      -0.563100
     20 H1          93.5800   108.1710    78.1640 h1         1 OR9       0.037700
     21 H2          91.8950   105.8890    79.2900 hc         1 OR9       0.061700
     22 H3          93.1930   106.7400    80.1250 hc         1 OR9       0.061700
     23 H4          95.1690   105.8070    75.7750 h1         1 OR9       0.034200
     24 H5          94.8760   107.5220    76.1040 h1         1 OR9       0.034200
     25 H6          92.9360   105.4530    74.9680 hc         1 OR9       0.054700
     26 H7          93.5450   106.9020    74.1800 hc         1 OR9       0.054700
     27 H8          94.8380   105.5410    79.3560 h1         1 OR9       0.031033
     28 H9          95.8420   105.2520    77.9350 h1         1 OR9       0.031033
     29 H10         95.6860   106.9020    78.5780 h1         1 OR9       0.031033
     30 H11         91.0940   107.3460    73.7030 ha         1 OR9       0.110000
     31 H12         88.7820   109.0680    76.8380 ha         1 OR9       0.126000
     32 H13         91.9190   107.5770    81.9210 ha         1 OR9       0.116000
     33 H14         89.0670   108.5280    74.4970 ha         1 OR9       0.112000
     34 H15         90.3350   109.2510    82.7980 ha         1 OR9       0.114000
     35 H17         88.5150   111.0470    79.3270 ho         1 OR9       0.482000
     36 H18         88.8340   110.8050    82.3010 ho         1 OR9       0.476000
     37 C10         95.1430   105.9660    78.3920 c3         1 OR9       0.150100
@<TRIPOS>BOND
     1     1     2 1   
     2     1     3 1   
     3     1    17 1   
     4     1    20 1   
     5     2     4 ar  
     6     2     7 ar  
     7     3     8 1   
     8     3    21 1   
     9     3    22 1   
    10     4     6 1   
    11     4    10 ar  
    12     5     6 1   
    13     5    17 1   
    14     5    23 1   
    15     5    24 1   
    16     6    25 1   
    17     6    26 1   
    18     7     9 1   
    19     7    11 ar  
    20     8     9 ar  
    21     8    12 ar  
    22     9    13 ar  
    23    10    14 ar  
    24    10    30 1   
    25    11    14 ar  
    26    11    31 1   
    27    12    16 ar  
    28    12    32 1   
    29    13    15 ar  
    30    13    18 1   
    31    14    33 1   
    32    15    16 ar  
    33    15    19 1   
    34    16    34 1   
    35    17    37 1   
    36    18    35 1   
    37    19    36 1   
    38    27    37 1   
    39    28    37 1   
    40    29    37 1   
@<TRIPOS>SUBSTRUCTURE
     1 OR9         1 TEMP              0 ****  ****    0 ROOT
