@<TRIPOS>MOLECULE
OR9
   37    40     1     0     0
SMALL
abcg2


@<TRIPOS>ATOM
      1 C01         92.9540   107.2340    78.0440 c6         1 OR9       0.223800
      2 C02         91.8810   107.5820    77.0340 ca         1 OR9      -0.067300
      3 C03         92.2300   106.6800    79.2720 c6         1 OR9      -0.026100
      4 C04         92.0030   107.2370    75.6920 ca         1 OR9      -0.067300
      5 C05         94.3790   106.7130    76.1930 c6         1 OR9       0.166800
      6 C06         93.2480   106.5590    75.2000 c6         1 OR9      -0.029100
      7 C07         90.7240   108.2370    77.4980 ca         1 OR9      -0.018000
      8 C08         91.3420   107.7500    79.8350 ca         1 OR9      -0.066300
      9 C09         90.6310   108.5650    78.9350 ca         1 OR9      -0.040000
     10 C11         90.9620   107.5200    74.8110 ca         1 OR9      -0.107000
     11 C12         89.6860   108.4850    76.5990 ca         1 OR9      -0.082000
     12 C13         91.2540   107.9720    81.1970 ca         1 OR9      -0.111000
     13 C14         89.8920   109.6370    79.4400 ca         1 OR9       0.137100
     14 C15         89.8060   108.1270    75.2640 ca         1 OR9      -0.114000
     15 C16         89.8050   109.8430    80.8250 ca         1 OR9       0.036100
     16 C17         90.4750   109.0090    81.6980 ca         1 OR9      -0.152000
     17 N01         93.9360   106.3040    77.5140 n3         1 OR9      -0.709600
     18 O01         89.2720   110.4940    78.6030 oh         1 OR9      -0.531100
     19 O02         89.0410   110.8960    81.2050 oh         1 OR9      -0.563100
     20 H1          93.4510   108.1770    78.3480 h1         1 OR9       0.037700
     21 H2          91.6530   105.7990    78.9700 hc         1 OR9       0.061700
     22 H3          92.9300   106.3580    80.0410 hc         1 OR9       0.061700
     23 H4          95.2180   106.0820    75.8940 h1         1 OR9       0.034200
     24 H5          94.7490   107.7530    76.1920 h1         1 OR9       0.034200
     25 H6          93.0510   105.4950    75.0380 hc         1 OR9       0.054700
     26 H7          93.5400   106.9720    74.2330 hc         1 OR9       0.054700
     27 H8          94.7710   105.7490    79.3670 h1         1 OR9       0.031033
     28 H9          95.7830   105.4530    77.9670 h1         1 OR9       0.031033
     29 H10         95.6010   107.1020    78.5860 h1         1 OR9       0.031033
     30 H11         91.0620   107.2490    73.7660 ha         1 OR9       0.110000
     31 H12         88.7680   108.9420    76.9350 ha         1 OR9       0.126000
     32 H13         91.8060   107.3410    81.8810 ha         1 OR9       0.116000
     33 H14         88.9900   108.3260    74.5810 ha         1 OR9       0.112000
     34 H15         90.4070   109.1760    82.7670 ha         1 OR9       0.114000
     35 H17         88.8380   111.1910    79.1110 ho         1 OR9       0.482000
     36 H18         89.0770   111.0240    82.1600 ho         1 OR9       0.476000
     37 C10         95.0720   106.1540    78.4030 c3         1 OR9       0.150100
@<TRIPOS>BOND
     1     1     2 1   
     2     1     3 1   
     3     1    17 1   
     4     1    20 1   
     5     2     4 ar  
     6     2     7 ar  
     7     3     8 1   
     8     3    21 1   
     9     3    22 1   
    10     4     6 1   
    11     4    10 ar  
    12     5     6 1   
    13     5    17 1   
    14     5    23 1   
    15     5    24 1   
    16     6    25 1   
    17     6    26 1   
    18     7     9 1   
    19     7    11 ar  
    20     8     9 ar  
    21     8    12 ar  
    22     9    13 ar  
    23    10    14 ar  
    24    10    30 1   
    25    11    14 ar  
    26    11    31 1   
    27    12    16 ar  
    28    12    32 1   
    29    13    15 ar  
    30    13    18 1   
    31    14    33 1   
    32    15    16 ar  
    33    15    19 1   
    34    16    34 1   
    35    17    37 1   
    36    18    35 1   
    37    19    36 1   
    38    27    37 1   
    39    28    37 1   
    40    29    37 1   
@<TRIPOS>SUBSTRUCTURE
     1 OR9         1 TEMP              0 ****  ****    0 ROOT
