@<TRIPOS>MOLECULE
ORA
   37    39     1     0     0
SMALL
No Charge or Current Charge


@<TRIPOS>ATOM
      1 C1          -6.3730     1.4750     0.2180 ca         1 ORA      -0.135000
      2 N1          -2.8530    -0.8390     0.6160 ne         1 ORA      -0.350400
      3 O1           5.4040     0.6540    -1.0100 o          1 ORA      -0.703200
      4 S1           4.9560     0.5710     0.3880 s6         1 ORA       1.272100
      5 C2          -6.2170     0.3010    -0.5380 ca         1 ORA      -0.128000
      6 N2          -2.0000    -0.7440    -0.3210 nf         1 ORA      -0.071400
      7 O2          -1.1280     2.0160     0.3000 o          1 ORA      -0.701867
      8 S2          -0.2920     1.8210    -0.8930 s6         1 ORA       1.270100
      9 C3          -5.3580     1.8800     1.1020 ca         1 ORA      -0.128000
     10 O3           5.5680    -0.4950     1.1950 o          1 ORA      -0.703200
     11 C4           1.4010    -3.2260     0.2050 ca         1 ORA      -0.012000
     12 O4           4.7440     1.8600     1.0640 o          1 ORA      -0.703200
     13 C5          -5.0450    -0.4670    -0.4120 ca         1 ORA      -0.089500
     14 O5          -0.9490     1.2220    -2.0650 o          1 ORA      -0.701867
     15 C6          -4.1870     1.1100     1.2270 ca         1 ORA      -0.089500
     16 O6           0.6150     2.9370    -1.2010 o          1 ORA      -0.701867
     17 C7           0.1270    -3.7660     0.0790 ca         1 ORA      -0.224000
     18 O7          -2.2000    -3.4920    -0.1710 oh         1 ORA      -0.581100
     19 C8           2.9220    -1.3920     0.2570 ca         1 ORA       0.006000
     20 C9           2.2070     0.8710    -0.1380 ca         1 ORA       0.079000
     21 C10          1.6000    -1.8380     0.1000 ca         1 ORA      -0.143000
     22 C11          0.5190    -0.9330    -0.1530 ca         1 ORA       0.155000
     23 C12         -4.0220    -0.0640     0.4700 ca         1 ORA       0.146400
     24 C13         -0.8050    -1.5120    -0.1990 ca         1 ORA      -0.047600
     25 C14         -0.9620    -2.9220    -0.1080 ca         1 ORA       0.204100
     26 C15          3.2270    -0.0340     0.1710 ca         1 ORA      -0.255500
     27 C16          0.8630     0.4600    -0.3350 ca         1 ORA      -0.250500
     28 H1          -7.2780     2.0690     0.1210 ha         1 ORA       0.086000
     29 H2          -7.0020    -0.0130    -1.2220 ha         1 ORA       0.097500
     30 H3          -5.4770     2.7880     1.6880 ha         1 ORA       0.097500
     31 H4           2.2420    -3.8940     0.3820 ha         1 ORA       0.098000
     32 H5          -4.9300    -1.3750    -0.9990 ha         1 ORA       0.153000
     33 H6          -3.4010     1.4240     1.9090 ha         1 ORA       0.153000
     34 H7          -0.0190    -4.8400     0.1550 ha         1 ORA       0.103000
     35 HO7         -2.8300    -2.7420    -0.0590 ho         1 ORA       0.524000
     36 H8           3.7160    -2.1100     0.4550 ha         1 ORA       0.116000
     37 H9           2.4900     1.9160    -0.2360 ha         1 ORA       0.161000
@<TRIPOS>BOND
     1     1     5 ar  
     2     1     9 ar  
     3     1    28 1   
     4     2     6 2   
     5     2    23 1   
     6     3     4 1   
     7     4    10 1   
     8     4    12 1   
     9     4    26 1   
    10     5    13 ar  
    11     5    29 1   
    12     6    24 1   
    13     7     8 1   
    14     8    14 1   
    15     8    16 1   
    16     8    27 1   
    17     9    15 ar  
    18     9    30 1   
    19    11    17 ar  
    20    11    21 ar  
    21    11    31 1   
    22    13    23 ar  
    23    13    32 1   
    24    15    23 ar  
    25    15    33 1   
    26    17    25 ar  
    27    17    34 1   
    28    18    25 1   
    29    18    35 1   
    30    19    21 ar  
    31    19    26 ar  
    32    19    36 1   
    33    20    26 ar  
    34    20    27 ar  
    35    20    37 1   
    36    21    22 ar  
    37    22    24 ar  
    38    22    27 ar  
    39    24    25 ar  
@<TRIPOS>SUBSTRUCTURE
     1 ORA         1 TEMP              0 ****  ****    0 ROOT
