@<TRIPOS>MOLECULE
ORA
   37    39     1     0     0
SMALL
abcg2


@<TRIPOS>ATOM
      1 C1          -6.3600     1.3730    -0.4130 ca         1 ORA      -0.135000
      2 N1          -2.9930    -1.0100     0.2530 ne         1 ORA      -0.350400
      3 O1           4.8700     1.0930    -1.7600 o          1 ORA      -0.703200
      4 S1           4.8930     0.5470    -0.3920 s6         1 ORA       1.272100
      5 C2          -6.4780     0.0470    -0.0190 ca         1 ORA      -0.128000
      6 N2          -1.8460    -0.5540     0.0600 nf         1 ORA      -0.071400
      7 O2          -1.0950     1.3270     1.8000 o          1 ORA      -0.701867
      8 S2          -0.2180     1.8520     0.7440 s6         1 ORA       1.270100
      9 C3          -5.0970     1.9310    -0.5930 ca         1 ORA      -0.128000
     10 O3           5.7670    -0.6280    -0.2430 o          1 ORA      -0.703200
     11 C4           1.3620    -3.2110     0.1190 ca         1 ORA      -0.012000
     12 O4           5.1080     1.5780     0.6380 o          1 ORA      -0.703200
     13 C5          -5.3390    -0.7150     0.1930 ca         1 ORA      -0.089500
     14 O5          -0.8890     2.2830    -0.4940 o          1 ORA      -0.701867
     15 C6          -3.9530     1.1790    -0.3840 ca         1 ORA      -0.089500
     16 O6           0.6940     2.8930     1.2560 o          1 ORA      -0.701867
     17 C7           0.1100    -3.7040     0.2840 ca         1 ORA      -0.224000
     18 O7          -2.1830    -3.3610     0.4750 oh         1 ORA      -0.581100
     19 C8           2.9420    -1.3830    -0.0940 ca         1 ORA       0.006000
     20 C9           2.2010     0.8750     0.1040 ca         1 ORA       0.079000
     21 C10          1.6140    -1.8160     0.0690 ca         1 ORA      -0.143000
     22 C11          0.5390    -0.8920     0.1940 ca         1 ORA       0.155000
     23 C12         -4.0760    -0.1550     0.0090 ca         1 ORA       0.146400
     24 C13         -0.7920    -1.4290     0.2470 ca         1 ORA      -0.047600
     25 C14         -0.9860    -2.8170     0.3570 ca         1 ORA       0.204100
     26 C15          3.2300    -0.0500    -0.1160 ca         1 ORA      -0.255500
     27 C16          0.8910     0.4900     0.2730 ca         1 ORA      -0.250500
     28 H1          -7.2460     1.9700    -0.5800 ha         1 ORA       0.086000
     29 H2          -7.4550    -0.3950     0.1240 ha         1 ORA       0.097500
     30 H3          -5.0050     2.9660    -0.8960 ha         1 ORA       0.097500
     31 H4           2.2010    -3.8890     0.0310 ha         1 ORA       0.098000
     32 H5          -5.4230    -1.7500     0.5010 ha         1 ORA       0.153000
     33 H6          -2.9720     1.6130    -0.5200 ha         1 ORA       0.153000
     34 H7          -0.0740    -4.7700     0.3370 ha         1 ORA       0.103000
     35 HO7         -2.8430    -2.6090     0.4880 ho         1 ORA       0.524000
     36 H8           3.7220    -2.1260    -0.1940 ha         1 ORA       0.116000
     37 H9           2.4530     1.9230     0.1840 ha         1 ORA       0.161000
@<TRIPOS>BOND
     1     1     5 ar  
     2     1     9 ar  
     3     1    28 1   
     4     2     6 2   
     5     2    23 1   
     6     3     4 1   
     7     4    10 1   
     8     4    12 1   
     9     4    26 1   
    10     5    13 ar  
    11     5    29 1   
    12     6    24 1   
    13     7     8 1   
    14     8    14 1   
    15     8    16 1   
    16     8    27 1   
    17     9    15 ar  
    18     9    30 1   
    19    11    17 ar  
    20    11    21 ar  
    21    11    31 1   
    22    13    23 ar  
    23    13    32 1   
    24    15    23 ar  
    25    15    33 1   
    26    17    25 ar  
    27    17    34 1   
    28    18    25 1   
    29    18    35 1   
    30    19    21 ar  
    31    19    26 ar  
    32    19    36 1   
    33    20    26 ar  
    34    20    27 ar  
    35    20    37 1   
    36    21    22 ar  
    37    22    24 ar  
    38    22    27 ar  
    39    24    25 ar  
@<TRIPOS>SUBSTRUCTURE
     1 ORA         1 TEMP              0 ****  ****    0 ROOT
