@<TRIPOS>MOLECULE
ORB
   44    46     1     0     0
SMALL
abcg2


@<TRIPOS>ATOM
      1 F2           0.1200    11.2250   -27.4330 f          1 ORB      -0.164000
      2 C2           1.4330    11.5270   -27.4270 ca         1 ORB       0.117000
      3 C3           1.9840    12.1640   -26.3340 ca         1 ORB      -0.096000
      4 C4           3.3420    12.4790   -26.3480 cp         1 ORB      -0.042000
      5 C5           4.0460    12.0920   -27.4990 ca         1 ORB       0.440000
      6 CL2          5.7770    12.3680   -27.6040 cl         1 ORB      -0.165000
      7 N6           3.5130    11.4860   -28.5380 nb         1 ORB      -0.640000
      8 C1           2.2090    11.2020   -28.5240 ca         1 ORB       0.321900
      9 C7           3.9390    13.1730   -25.1860 cp         1 ORB      -0.027000
     10 C12          3.7760    12.6460   -23.9070 ca         1 ORB      -0.090000
     11 C11          4.2430    13.3380   -22.7950 ca         1 ORB      -0.092500
     12 C10          4.8710    14.5690   -22.9380 ca         1 ORB      -0.105300
     13 C9           5.0600    15.0820   -24.2220 ca         1 ORB      -0.092500
     14 C8           4.6000    14.3970   -25.3330 ca         1 ORB      -0.090000
     15 C13          5.3000    15.3530   -21.7170 c3         1 ORB       0.280800
     16 C25          6.8100    15.5680   -21.6590 c3         1 ORB      -0.094100
     17 N14          4.6540    16.6860   -21.7130 n7         1 ORB      -0.927300
     18 S15          3.0410    16.8400   -21.4750 sy         1 ORB       1.241600
     19 O16          2.5270    15.8080   -20.6060 o          1 ORB      -0.560500
     20 O17          2.8410    18.2250   -21.1100 o          1 ORB      -0.560500
     21 C18          2.3480    16.5610   -23.0480 cc         1 ORB      -0.447500
     22 C22          2.5940    17.3180   -24.1600 cd         1 ORB       0.341300
     23 C24          3.4360    18.5070   -24.4070 c3         1 ORB      -0.166400
     24 O21          1.9140    16.8020   -25.1840 os         1 ORB      -0.084700
     25 N20          1.1890    15.6690   -24.7510 nd         1 ORB      -0.370300
     26 C19          1.4530    15.5320   -23.4780 cc         1 ORB       0.377300
     27 C23          0.8230    14.4290   -22.7030 c3         1 ORB      -0.139400
     28 H3           1.3650    12.4330   -25.4880 ha         1 ORB       0.147000
     29 H1           1.7820    10.7100   -29.3890 h4         1 ORB       0.046100
     30 H12          3.2690    11.6990   -23.7770 ha         1 ORB       0.124000
     31 H8           4.7230    14.8270   -26.3170 ha         1 ORB       0.124000
     32 H11          4.0880    12.9280   -21.8050 ha         1 ORB       0.121500
     33 H9           5.5370    16.0450   -24.3500 ha         1 ORB       0.121500
     34 H13          4.9900    14.7960   -20.8300 h1         1 ORB       0.060700
     35 H251         7.0830    16.1150   -20.7540 hc         1 ORB       0.048367
     36 H252         7.3120    14.6010   -21.6450 hc         1 ORB       0.048367
     37 H253         7.1570    16.1280   -22.5280 hc         1 ORB       0.048367
     38 H14          5.1540    17.4040   -21.2010 hn         1 ORB       0.493000
     39 H241         3.3820    18.7970   -25.4540 hc         1 ORB       0.082033
     40 H242         3.1060    19.3370   -23.7810 hc         1 ORB       0.082033
     41 H243         4.4720    18.2870   -24.1430 hc         1 ORB       0.082033
     42 H231         0.2720    13.7770   -23.3780 hc         1 ORB       0.068033
     43 H232         1.5790    13.8510   -22.1770 hc         1 ORB       0.068033
     44 H233         0.1400    14.8370   -21.9570 hc         1 ORB       0.068033
@<TRIPOS>BOND
     1     1     2 1   
     2     2     3 ar  
     3     2     8 ar  
     4     3     4 ar  
     5     3    28 1   
     6     4     5 ar  
     7     4     9 1   
     8     5     6 1   
     9     5     7 ar  
    10     7     8 ar  
    11     8    29 1   
    12     9    10 ar  
    13     9    14 ar  
    14    10    11 ar  
    15    10    30 1   
    16    11    12 ar  
    17    11    32 1   
    18    12    13 ar  
    19    12    15 1   
    20    13    14 ar  
    21    13    33 1   
    22    14    31 1   
    23    15    16 1   
    24    15    17 1   
    25    15    34 1   
    26    16    35 1   
    27    16    36 1   
    28    16    37 1   
    29    17    18 1   
    30    17    38 1   
    31    18    19 2   
    32    18    20 2   
    33    18    21 1   
    34    21    22 2   
    35    21    26 1   
    36    22    23 1   
    37    22    24 1   
    38    23    39 1   
    39    23    40 1   
    40    23    41 1   
    41    24    25 1   
    42    25    26 2   
    43    26    27 1   
    44    27    42 1   
    45    27    43 1   
    46    27    44 1   
@<TRIPOS>SUBSTRUCTURE
     1 ORB         1 TEMP              0 ****  ****    0 ROOT
