@<TRIPOS>MOLECULE
ORB
   44    46     1     0     0
SMALL
No Charge or Current Charge


@<TRIPOS>ATOM
      1 F2           0.1610    11.2040   -27.7360 f          1 ORB      -0.164000
      2 C2           1.4770    11.5070   -27.6490 ca         1 ORB       0.117000
      3 C3           1.9730    12.1800   -26.5240 ca         1 ORB      -0.096000
      4 C4           3.3530    12.4930   -26.4600 cp         1 ORB      -0.042000
      5 C5           4.1680    12.0860   -27.5590 ca         1 ORB       0.440000
      6 Cl2          5.9090    12.3510   -27.5830 cl         1 ORB      -0.165000
      7 N6           3.6930    11.4320   -28.6470 nb         1 ORB      -0.640000
      8 C1           2.3650    11.1550   -28.6840 ca         1 ORB       0.321900
      9 C7           3.8950    13.2150   -25.2710 cp         1 ORB      -0.027000
     10 C12          3.6360    12.7400   -23.9640 ca         1 ORB      -0.090000
     11 C11          4.1030    13.4330   -22.8350 ca         1 ORB      -0.092500
     12 C10          4.8270    14.6310   -22.9830 ca         1 ORB      -0.105300
     13 C9           5.1040    15.1070   -24.2810 ca         1 ORB      -0.092500
     14 C8           4.6380    14.4110   -25.4090 ca         1 ORB      -0.090000
     15 C13          5.2790    15.4110   -21.7480 c3         1 ORB       0.280800
     16 C25          6.8120    15.5410   -21.6960 c3         1 ORB      -0.094100
     17 N14          4.6990    16.7620   -21.7250 n7         1 ORB      -0.927300
     18 S15          3.0720    16.9320   -21.4310 sy         1 ORB       1.241600
     19 O16          2.7210    15.9620   -20.3940 o          1 ORB      -0.560500
     20 O17          2.8980    18.3700   -21.2330 o          1 ORB      -0.560500
     21 C18          2.3260    16.5170   -22.9630 cc         1 ORB      -0.447500
     22 C22          2.5470    17.1550   -24.1360 cd         1 ORB       0.341300
     23 C24          3.4140    18.3340   -24.4810 c3         1 ORB      -0.166400
     24 O21          1.8040    16.5800   -25.1320 os         1 ORB      -0.084700
     25 N20          1.0410    15.5090   -24.5630 nd         1 ORB      -0.370300
     26 C19          1.3900    15.5210   -23.2880 cc         1 ORB       0.377300
     27 C23          0.7850    14.5690   -22.2960 c3         1 ORB      -0.139400
     28 H3           1.3010    12.4680   -25.7190 ha         1 ORB       0.147000
     29 H1           2.0030    10.6310   -29.5680 h4         1 ORB       0.046100
     30 H12          3.0660    11.8240   -23.8280 ha         1 ORB       0.124000
     31 H8           4.8360    14.8150   -26.3990 ha         1 ORB       0.124000
     32 H11          3.8840    13.0440   -21.8430 ha         1 ORB       0.121500
     33 H9           5.6580    16.0320   -24.4160 ha         1 ORB       0.121500
     34 H13          4.9790    14.8500   -20.8500 h1         1 ORB       0.060700
     35 H251         7.1290    16.0220   -20.7640 hc         1 ORB       0.048367
     36 H252         7.2780    14.5490   -21.7400 hc         1 ORB       0.048367
     37 H253         7.1890    16.1350   -22.5360 hc         1 ORB       0.048367
     38 H14          5.0570    17.2480   -20.9070 hn         1 ORB       0.493000
     39 H241         3.4530    18.4890   -25.5650 hc         1 ORB       0.082033
     40 H242         3.0230    19.2490   -24.0230 hc         1 ORB       0.082033
     41 H243         4.4400    18.1880   -24.1270 hc         1 ORB       0.082033
     42 H231         0.0810    13.8850   -22.7840 hc         1 ORB       0.068033
     43 H232         1.5530    13.9610   -21.8090 hc         1 ORB       0.068033
     44 H233         0.2360    15.1160   -21.5210 hc         1 ORB       0.068033
@<TRIPOS>BOND
     1     1     2 1   
     2     2     3 ar  
     3     2     8 ar  
     4     3     4 ar  
     5     3    28 1   
     6     4     5 ar  
     7     4     9 1   
     8     5     6 1   
     9     5     7 ar  
    10     7     8 ar  
    11     8    29 1   
    12     9    10 ar  
    13     9    14 ar  
    14    10    11 ar  
    15    10    30 1   
    16    11    12 ar  
    17    11    32 1   
    18    12    13 ar  
    19    12    15 1   
    20    13    14 ar  
    21    13    33 1   
    22    14    31 1   
    23    15    16 1   
    24    15    17 1   
    25    15    34 1   
    26    16    35 1   
    27    16    36 1   
    28    16    37 1   
    29    17    18 1   
    30    17    38 1   
    31    18    19 2   
    32    18    20 2   
    33    18    21 1   
    34    21    22 2   
    35    21    26 1   
    36    22    23 1   
    37    22    24 1   
    38    23    39 1   
    39    23    40 1   
    40    23    41 1   
    41    24    25 1   
    42    25    26 2   
    43    26    27 1   
    44    27    42 1   
    45    27    43 1   
    46    27    44 1   
@<TRIPOS>SUBSTRUCTURE
     1 ORB         1 TEMP              0 ****  ****    0 ROOT
