@<TRIPOS>MOLECULE
ORC
   47    49     1     0     0
SMALL
abcg2


@<TRIPOS>ATOM
      1 O13         15.5870     9.4500    22.3030 o          1 ORC      -0.552500
      2 S10         16.3770     9.0990    23.4560 sy         1 ORC       1.246600
      3 O11         17.4200     8.1080    23.3400 o          1 ORC      -0.552500
      4 C12         15.2730     8.5410    24.6910 cc         1 ORC      -0.473500
      5 C17         15.6230     7.9880    25.9660 cc         1 ORC       0.355300
      6 C19         16.9700     7.7620    26.5530 c3         1 ORC      -0.146400
      7 N16         14.5480     7.6760    26.6370 nd         1 ORC      -0.353300
      8 O15         13.4590     8.0220    25.8110 os         1 ORC      -0.096700
      9 C14         13.9060     8.5390    24.6590 cd         1 ORC       0.352300
     10 C18         12.8790     8.9410    23.6750 c3         1 ORC      -0.161400
     11 N8          17.1140    10.4600    23.9640 n7         1 ORC      -0.900300
     12 C7          16.3830    11.7380    24.1150 c3         1 ORC       0.276800
     13 C9          17.4180    12.8480    24.2730 c3         1 ORC      -0.086100
     14 C5          15.3760    11.7150    25.2460 ca         1 ORC      -0.137300
     15 C6          14.0290    11.9470    24.9870 ca         1 ORC      -0.097500
     16 C1          13.0840    11.8730    26.0010 ca         1 ORC      -0.102000
     17 C4          15.7630    11.4260    26.5540 ca         1 ORC      -0.097500
     18 C3          14.8220    11.3450    27.5700 ca         1 ORC      -0.102000
     19 C2          13.4640    11.5640    27.3090 ca         1 ORC       0.021000
     20 C20         12.4670    11.4600    28.3810 cc         1 ORC      -0.190000
     21 C24         12.5130    11.9970    29.6340 cd         1 ORC       0.219300
     22 C26         13.4860    12.8670    30.3350 c3         1 ORC      -0.141400
     23 O23         11.4050    11.6470    30.3170 os         1 ORC      -0.094700
     24 N22         10.5930    10.8430    29.4960 nd         1 ORC      -0.357300
     25 C21         11.2240    10.7450    28.3540 cc         1 ORC       0.304300
     26 C25         10.6480     9.9410    27.2390 c3         1 ORC      -0.138400
     27 H8          17.8390    10.2820    24.6510 hn         1 ORC       0.484000
     28 H191        16.8750     7.3280    27.5470 hc         1 ORC       0.066700
     29 H192        17.5540     7.0950    25.9190 hc         1 ORC       0.066700
     30 H193        17.5130     8.7060    26.6310 hc         1 ORC       0.066700
     31 H181        12.0170     9.3570    24.1940 hc         1 ORC       0.082700
     32 H182        13.2830     9.6710    22.9800 hc         1 ORC       0.082700
     33 H183        12.5500     8.0670    23.1070 hc         1 ORC       0.082700
     34 H7          15.8440    11.8870    23.1810 h1         1 ORC       0.085700
     35 H91C        16.9130    13.8110    24.3430 hc         1 ORC       0.047700
     36 H92C        18.0040    12.7020    25.1830 hc         1 ORC       0.047700
     37 H93C        18.0950    12.8630    23.4180 hc         1 ORC       0.047700
     38 H6          13.7110    12.1680    23.9750 ha         1 ORC       0.114500
     39 H4          16.8030    11.2290    26.7810 ha         1 ORC       0.114500
     40 H1          12.0430    12.0570    25.7730 ha         1 ORC       0.120000
     41 H3          15.1380    11.0830    28.5710 ha         1 ORC       0.120000
     42 H261        12.9690    13.6840    30.8400 hc         1 ORC       0.065700
     43 H262        14.0420    12.3030    31.0880 hc         1 ORC       0.065700
     44 H263        14.1980    13.2820    29.6230 hc         1 ORC       0.065700
     45 H251         9.8140     9.3390    27.5990 hc         1 ORC       0.060367
     46 H252        10.2870    10.5890    26.4390 hc         1 ORC       0.060367
     47 H253        11.4080     9.2850    26.8140 hc         1 ORC       0.060367
@<TRIPOS>BOND
     1     1     2 2   
     2     2     3 2   
     3     2     4 1   
     4     2    11 1   
     5     4     5 1   
     6     4     9 2   
     7     5     6 1   
     8     5     7 2   
     9     6    28 1   
    10     6    29 1   
    11     6    30 1   
    12     7     8 1   
    13     8     9 1   
    14     9    10 1   
    15    10    31 1   
    16    10    32 1   
    17    10    33 1   
    18    11    12 1   
    19    11    27 1   
    20    12    13 1   
    21    12    14 1   
    22    12    34 1   
    23    13    35 1   
    24    13    36 1   
    25    13    37 1   
    26    14    15 ar  
    27    14    17 ar  
    28    15    16 ar  
    29    15    38 1   
    30    16    19 ar  
    31    16    40 1   
    32    17    18 ar  
    33    17    39 1   
    34    18    19 ar  
    35    18    41 1   
    36    19    20 1   
    37    20    21 2   
    38    20    25 1   
    39    21    22 1   
    40    21    23 1   
    41    22    42 1   
    42    22    43 1   
    43    22    44 1   
    44    23    24 1   
    45    24    25 2   
    46    25    26 1   
    47    26    45 1   
    48    26    46 1   
    49    26    47 1   
@<TRIPOS>SUBSTRUCTURE
     1 ORC         1 TEMP              0 ****  ****    0 ROOT
