@<TRIPOS>MOLECULE
ORC
   47    49     1     0     0
SMALL
No Charge or Current Charge


@<TRIPOS>ATOM
      1 O13         15.2540     9.6590    22.4270 o          1 ORC      -0.552500
      2 S10         16.2110     9.1200    23.3930 sy         1 ORC       1.246600
      3 O11         17.2170     8.1310    23.0070 o          1 ORC      -0.552500
      4 C12         15.3550     8.5370    24.8140 cc         1 ORC      -0.473500
      5 C17         15.8540     8.0490    26.0350 cc         1 ORC       0.355300
      6 C19         17.3160     7.9500    26.3710 c3         1 ORC      -0.146400
      7 N16         14.9200     7.6690    26.8870 nd         1 ORC      -0.353300
      8 O15         13.7000     7.9090    26.1790 os         1 ORC      -0.096700
      9 C14         14.0090     8.4130    24.9440 cd         1 ORC       0.352300
     10 C18         12.8760     8.6500    23.9850 c3         1 ORC      -0.161400
     11 N8          17.0870    10.4100    23.9800 n7         1 ORC      -0.900300
     12 C7          16.4300    11.7160    24.1200 c3         1 ORC       0.276800
     13 C9          17.5100    12.7800    24.3900 c3         1 ORC      -0.086100
     14 C5          15.3810    11.6760    25.2320 ca         1 ORC      -0.137300
     15 C6          14.0220    11.8620    24.9200 ca         1 ORC      -0.097500
     16 C1          13.0400    11.7710    25.9200 ca         1 ORC      -0.102000
     17 C4          15.7410    11.4300    26.5720 ca         1 ORC      -0.097500
     18 C3          14.7560    11.3430    27.5700 ca         1 ORC      -0.102000
     19 C2          13.3900    11.5050    27.2600 ca         1 ORC       0.021000
     20 C20         12.3550    11.3800    28.3010 cc         1 ORC      -0.190000
     21 C24         12.5010    11.8700    29.5690 cd         1 ORC       0.219300
     22 C26         13.6280    12.5940    30.2590 c3         1 ORC      -0.141400
     23 O23         11.3220    11.7340    30.2550 os         1 ORC      -0.094700
     24 N22         10.3380    11.1710    29.3760 nd         1 ORC      -0.357300
     25 C21         10.9900    11.0050    28.2370 cc         1 ORC       0.304300
     26 C25         10.3280    10.4040    27.0280 c3         1 ORC      -0.138400
     27 H8          17.3040    10.0840    24.9130 hn         1 ORC       0.484000
     28 H191        17.4710     7.2950    27.2360 hc         1 ORC       0.066700
     29 H192        17.8910     7.5270    25.5400 hc         1 ORC       0.066700
     30 H193        17.7320     8.9300    26.6240 hc         1 ORC       0.066700
     31 H181        11.9140     8.3820    24.4360 hc         1 ORC       0.082700
     32 H182        12.8200     9.7000    23.6830 hc         1 ORC       0.082700
     33 H183        12.9990     8.0430    23.0810 hc         1 ORC       0.082700
     34 H7          15.9410    12.0020    23.1760 h1         1 ORC       0.085700
     35 H91C        17.0480    13.7660    24.5160 hc         1 ORC       0.047700
     36 H92C        18.0850    12.5510    25.2940 hc         1 ORC       0.047700
     37 H93C        18.2080    12.8370    23.5470 hc         1 ORC       0.047700
     38 H6          13.7200    12.0670    23.8950 ha         1 ORC       0.114500
     39 H4          16.7820    11.2850    26.8480 ha         1 ORC       0.114500
     40 H1          12.0050    11.9370    25.6420 ha         1 ORC       0.120000
     41 H3          15.0670    11.1000    28.5810 ha         1 ORC       0.120000
     42 H261        13.2500    13.2190    31.0750 hc         1 ORC       0.065700
     43 H262        14.3450    11.8860    30.6900 hc         1 ORC       0.065700
     44 H263        14.1630    13.2510    29.5640 hc         1 ORC       0.065700
     45 H251         9.5070     9.7400    27.3220 hc         1 ORC       0.060367
     46 H252         9.9100    11.1850    26.3830 hc         1 ORC       0.060367
     47 H253        11.0380     9.8080    26.4440 hc         1 ORC       0.060367
@<TRIPOS>BOND
     1     1     2 2   
     2     2     3 2   
     3     2     4 1   
     4     2    11 1   
     5     4     5 1   
     6     4     9 2   
     7     5     6 1   
     8     5     7 2   
     9     6    28 1   
    10     6    29 1   
    11     6    30 1   
    12     7     8 1   
    13     8     9 1   
    14     9    10 1   
    15    10    31 1   
    16    10    32 1   
    17    10    33 1   
    18    11    12 1   
    19    11    27 1   
    20    12    13 1   
    21    12    14 1   
    22    12    34 1   
    23    13    35 1   
    24    13    36 1   
    25    13    37 1   
    26    14    15 ar  
    27    14    17 ar  
    28    15    16 ar  
    29    15    38 1   
    30    16    19 ar  
    31    16    40 1   
    32    17    18 ar  
    33    17    39 1   
    34    18    19 ar  
    35    18    41 1   
    36    19    20 1   
    37    20    21 2   
    38    20    25 1   
    39    21    22 1   
    40    21    23 1   
    41    22    42 1   
    42    22    43 1   
    43    22    44 1   
    44    23    24 1   
    45    24    25 2   
    46    25    26 1   
    47    26    45 1   
    48    26    46 1   
    49    26    47 1   
@<TRIPOS>SUBSTRUCTURE
     1 ORC         1 TEMP              0 ****  ****    0 ROOT
