@<TRIPOS>MOLECULE
ORD
   20    19     1     0     0
SMALL
No Charge or Current Charge


@<TRIPOS>ATOM
      1 N           21.2470    24.2060    16.0050 n8         1 ORD      -0.862800
      2 CA          22.2680    23.1090    15.8240 c3         1 ORD       0.026500
      3 CB          22.9590    23.2380    14.4360 c3         1 ORD      -0.059400
      4 CG          23.7700    24.5440    14.2400 c3         1 ORD      -0.080400
      5 CD          24.4890    24.5990    12.8760 c3         1 ORD       0.143800
      6 NE          25.2570    25.8470    12.7180 n8         1 ORD      -0.889800
      7 C           21.7730    21.6170    16.1110 c          1 ORD       0.927600
      8 H           20.9270    24.2120    16.9790 hn         1 ORD       0.306300
      9 H2          21.7020    25.1130    15.8720 hn         1 ORD       0.306300
     10 HA          23.0440    23.3110    16.5750 h1         1 ORD      -0.002300
     11 HB2         23.6430    22.3890    14.3100 hc         1 ORD       0.046200
     12 HB3         22.2060    23.1530    13.6430 hc         1 ORD       0.046200
     13 HG2         23.1010    25.4090    14.3240 hc         1 ORD       0.032700
     14 HG3         24.5120    24.6300    15.0440 hc         1 ORD       0.032700
     15 HD2         25.1810    23.7500    12.7870 h1         1 ORD       0.024200
     16 HD3         23.7520    24.5370    12.0640 h1         1 ORD       0.024200
     17 HE1         25.9900    25.8800    13.4340 hn         1 ORD       0.322300
     18 HE2         25.7670    25.8150    11.8300 hn         1 ORD       0.322300
     19 O           21.3380    20.9320    15.1880 o          1 ORD      -0.832300
     20 OXT         21.8430    21.1910    17.2610 o          1 ORD      -0.832300
@<TRIPOS>BOND
     1     1     2 1   
     2     1     8 1   
     3     1     9 1   
     4     2     3 1   
     5     2     7 1   
     6     2    10 1   
     7     3     4 1   
     8     3    11 1   
     9     3    12 1   
    10     4     5 1   
    11     4    13 1   
    12     4    14 1   
    13     5     6 1   
    14     5    15 1   
    15     5    16 1   
    16     6    17 1   
    17     6    18 1   
    18     7    19 1   
    19     7    20 1   
@<TRIPOS>SUBSTRUCTURE
     1 ORD         1 TEMP              0 ****  ****    0 ROOT
