@<TRIPOS>MOLECULE
ORD
   20    19     1     0     0
SMALL
bcc


@<TRIPOS>ATOM
      1 N           21.2720    24.1420    15.9320 n8         1 ORD      -0.862800
      2 CA          22.3410    23.1450    15.8510 c3         1 ORD       0.026500
      3 CB          23.0330    23.2380    14.4940 c3         1 ORD      -0.059400
      4 CG          23.7700    24.5500    14.2510 c3         1 ORD      -0.080400
      5 CD          24.5140    24.5590    12.9240 c3         1 ORD       0.143800
      6 NE          25.2060    25.8230    12.7160 n8         1 ORD      -0.889800
      7 C           21.7550    21.7250    16.0570 c          1 ORD       0.927600
      8 H           20.8050    24.0630    16.8270 hn         1 ORD       0.306300
      9 H2          21.6790    25.0690    15.9320 hn         1 ORD       0.306300
     10 HA          23.1080    23.3020    16.6260 h1         1 ORD      -0.002300
     11 HB2         23.7530    22.4160    14.4110 hc         1 ORD       0.046200
     12 HB3         22.2880    23.0790    13.7090 hc         1 ORD       0.046200
     13 HG2         23.0760    25.3960    14.2600 hc         1 ORD       0.032700
     14 HG3         24.4840    24.7220    15.0650 hc         1 ORD       0.032700
     15 HD2         25.1800    23.6840    12.8860 h1         1 ORD       0.024200
     16 HD3         23.7930    24.4270    12.1120 h1         1 ORD       0.024200
     17 HE1         25.9510    25.9100    13.3970 hn         1 ORD       0.322300
     18 HE2         25.6660    25.8130    11.8140 hn         1 ORD       0.322300
     19 O           20.8990    21.3450    15.2320 o          1 ORD      -0.832300
     20 OXT         22.1960    21.0740    17.0260 o          1 ORD      -0.832300
@<TRIPOS>BOND
     1     1     2 1   
     2     1     8 1   
     3     1     9 1   
     4     2     3 1   
     5     2     7 1   
     6     2    10 1   
     7     3     4 1   
     8     3    11 1   
     9     3    12 1   
    10     4     5 1   
    11     4    13 1   
    12     4    14 1   
    13     5     6 1   
    14     5    15 1   
    15     5    16 1   
    16     6    17 1   
    17     6    18 1   
    18     7    19 1   
    19     7    20 1   
@<TRIPOS>SUBSTRUCTURE
     1 ORD         1 TEMP              0 ****  ****    0 ROOT
