@<TRIPOS>MOLECULE
ORE
   38    41     1     0     0
SMALL
bcc


@<TRIPOS>ATOM
      1 O7          21.1930    28.8080    43.4110 o          1 ORE      -0.837800
      2 C21         22.2990    28.2380    43.3500 c          1 ORE       0.924200
      3 O6          23.2620    28.3890    44.1260 o          1 ORE      -0.837800
      4 C17         22.4980    27.2530    42.2040 ca         1 ORE      -0.142600
      5 C18         21.4990    27.0380    41.2630 ca         1 ORE      -0.077000
      6 C19         21.6620    26.1500    40.2050 ca         1 ORE      -0.140600
      7 C20         20.5600    25.9300    39.1870 c          1 ORE       0.919200
      8 O5          19.4990    26.5580    39.3410 o          1 ORE      -0.818300
      9 O4          20.8320    25.1210    38.2760 o          1 ORE      -0.818300
     10 C16         23.6890    26.5420    42.0760 ca         1 ORE      -0.121000
     11 C15         23.8690    25.6450    41.0350 ca         1 ORE      -0.171000
     12 C14         22.8610    25.4480    40.0940 ca         1 ORE      -0.124000
     13 C10         23.1350    24.4980    38.9920 cc         1 ORE       0.271000
     14 C9          23.0580    23.1380    39.1880 cd         1 ORE      -0.268100
     15 C8          22.5330    22.5480    40.3820 cd         1 ORE      -0.033200
     16 C7          22.4680    21.2130    40.5000 cc         1 ORE      -0.024700
     17 F2          21.9730    20.6560    41.6130 f          1 ORE      -0.179500
     18 C6          22.9060    20.2690    39.4710 c          1 ORE       0.588500
     19 O3          22.8270    19.0510    39.6450 o          1 ORE      -0.615100
     20 C4          23.4830    22.2420    38.1580 cd         1 ORE       0.381700
     21 C5          23.4190    20.8860    38.2820 cc         1 ORE      -0.380200
     22 C11         23.7130    24.9800    37.7750 ca         1 ORE      -0.170300
     23 C12         23.8940    26.3440    37.4960 ca         1 ORE      -0.029000
     24 C13         24.4500    26.7300    36.3130 ca         1 ORE       0.055900
     25 F1          24.6280    28.0290    36.0410 f          1 ORE      -0.140900
     26 C3          24.1160    24.0580    36.8090 ca         1 ORE       0.399000
     27 O2          23.9800    22.7360    37.0090 os         1 ORE      -0.391800
     28 C2          24.6810    24.4510    35.6030 ca         1 ORE      -0.323300
     29 C1          24.8540    25.7980    35.3410 ca         1 ORE       0.131100
     30 O1          25.3880    26.2800    34.2200 oh         1 ORE      -0.483100
     31 H18         20.5640    27.5750    41.3460 ha         1 ORE       0.172000
     32 H16         24.4820    26.6900    42.7970 ha         1 ORE       0.133000
     33 H15         24.7990    25.0960    40.9520 ha         1 ORE       0.095000
     34 H8          22.1840    23.1840    41.1850 ha         1 ORE       0.172000
     35 H5          23.7620    20.2510    37.4750 ha         1 ORE       0.137000
     36 H12         23.5970    27.0930    38.2180 ha         1 ORE       0.191000
     37 H2          24.9830    23.7040    34.8780 ha         1 ORE       0.137000
     38 HO1         25.6400    25.5640    33.6240 ho         1 ORE       0.418000
@<TRIPOS>BOND
     1     1     2 1   
     2     2     3 1   
     3     2     4 1   
     4     4     5 ar  
     5     4    10 ar  
     6     5     6 ar  
     7     5    31 1   
     8     6     7 1   
     9     6    12 ar  
    10     7     8 1   
    11     7     9 1   
    12    10    11 ar  
    13    10    32 1   
    14    11    12 ar  
    15    11    33 1   
    16    12    13 1   
    17    13    14 2   
    18    13    22 1   
    19    14    15 1   
    20    14    20 1   
    21    15    16 2   
    22    15    34 1   
    23    16    17 1   
    24    16    18 1   
    25    18    19 2   
    26    18    21 1   
    27    20    21 2   
    28    20    27 1   
    29    21    35 1   
    30    22    23 ar  
    31    22    26 ar  
    32    23    24 ar  
    33    23    36 1   
    34    24    25 1   
    35    24    29 ar  
    36    26    27 1   
    37    26    28 ar  
    38    28    29 ar  
    39    28    37 1   
    40    29    30 1   
    41    30    38 1   
@<TRIPOS>SUBSTRUCTURE
     1 ORE         1 TEMP              0 ****  ****    0 ROOT
