@<TRIPOS>MOLECULE
ORE
   38    41     1     0     0
SMALL
No Charge or Current Charge


@<TRIPOS>ATOM
      1 O7          21.0700    28.7810    43.3990 o          1 ORE      -0.732500
      2 C21         22.1210    28.1540    43.4170 c          1 ORE       0.713600
      3 O6          22.9420    28.2690    44.3160 o          1 ORE      -0.732500
      4 C17         22.4150    27.1930    42.2760 ca         1 ORE      -0.142600
      5 C18         21.5050    27.0450    41.2040 ca         1 ORE      -0.059000
      6 C19         21.7570    26.1540    40.1370 ca         1 ORE      -0.140600
      7 C20         20.7400    26.0500    39.0180 c          1 ORE       0.708600
      8 O5          20.2590    27.0870    38.5850 o          1 ORE      -0.713000
      9 O4          20.4100    24.9410    38.6240 o          1 ORE      -0.713000
     10 C16         23.6030    26.4290    42.2570 ca         1 ORE      -0.103000
     11 C15         23.8690    25.5470    41.1990 ca         1 ORE      -0.153000
     12 C14         22.9560    25.3950    40.1390 ca         1 ORE      -0.124000
     13 C10         23.2930    24.4890    39.0340 cc         1 ORE       0.271000
     14 C9          23.1670    23.1130    39.2240 cd         1 ORE      -0.202800
     15 C8          22.6750    22.5870    40.4810 cd         1 ORE      -0.083200
     16 C7          22.5680    21.2170    40.6130 cc         1 ORE      -0.024700
     17 F2          22.1170    20.6920    41.7680 f          1 ORE      -0.179500
     18 C6          22.9360    20.2730    39.5230 c          1 ORE       0.588500
     19 O3          22.8530    19.0540    39.6270 o          1 ORE      -0.615100
     20 C4          23.5210    22.2390    38.1390 cd         1 ORE       0.272000
     21 C5          23.4100    20.8850    38.2830 cc         1 ORE      -0.430200
     22 C11         23.7870    24.9760    37.7430 ca         1 ORE      -0.105000
     23 C12         23.9550    26.3570    37.4950 ca         1 ORE      -0.011000
     24 C13         24.4300    26.8000    36.2490 ca         1 ORE       0.091000
     25 F1          24.5830    28.1280    36.0330 f          1 ORE      -0.176000
     26 C3          24.1090    24.0600    36.7270 ca         1 ORE       0.224000
     27 O2          23.9700    22.7170    36.9460 os         1 ORE      -0.303000
     28 C2          24.5840    24.4970    35.4810 ca         1 ORE      -0.240000
     29 C1          24.7450    25.8690    35.2360 ca         1 ORE       0.131100
     30 O1          25.2090    26.2840    34.0180 oh         1 ORE      -0.522100
     31 H18         20.5840    27.6260    41.1960 ha         1 ORE       0.154000
     32 H16         24.3290    26.5200    43.0620 ha         1 ORE       0.115000
     33 H15         24.7960    24.9770    41.2000 ha         1 ORE       0.077000
     34 H8          22.3860    23.2230    41.3130 ha         1 ORE       0.222000
     35 H5          23.6720    20.2040    37.4840 ha         1 ORE       0.187000
     36 H12         23.7240    27.0950    38.2590 ha         1 ORE       0.173000
     37 H2          24.8250    23.7640    34.7160 ha         1 ORE       0.119000
     38 HO1         25.3670    25.4930    33.4600 ho         1 ORE       0.457000
@<TRIPOS>BOND
     1     1     2 1   
     2     2     3 1   
     3     2     4 1   
     4     4     5 ar  
     5     4    10 ar  
     6     5     6 ar  
     7     5    31 1   
     8     6     7 1   
     9     6    12 ar  
    10     7     8 1   
    11     7     9 1   
    12    10    11 ar  
    13    10    32 1   
    14    11    12 ar  
    15    11    33 1   
    16    12    13 1   
    17    13    14 2   
    18    13    22 1   
    19    14    15 1   
    20    14    20 1   
    21    15    16 2   
    22    15    34 1   
    23    16    17 1   
    24    16    18 1   
    25    18    19 2   
    26    18    21 1   
    27    20    21 2   
    28    20    27 1   
    29    21    35 1   
    30    22    23 ar  
    31    22    26 ar  
    32    23    24 ar  
    33    23    36 1   
    34    24    25 1   
    35    24    29 ar  
    36    26    27 1   
    37    26    28 ar  
    38    28    29 ar  
    39    28    37 1   
    40    29    30 1   
    41    30    38 1   
@<TRIPOS>SUBSTRUCTURE
     1 ORE         1 TEMP              0 ****  ****    0 ROOT
