@<TRIPOS>MOLECULE
ORF
   56    61     1     0     0
SMALL
abcg2


@<TRIPOS>ATOM
      1 C4          -8.4320    14.9790   -11.8570 cp         1 ORF      -0.011000
      2 C5          -8.4010    15.6730   -10.6550 ca         1 ORF      -0.119000
      3 C6          -9.3060    16.7030   -10.4740 ca         1 ORF      -0.053000
      4 C7         -10.2250    17.0320   -11.4490 ca         1 ORF      -0.135600
      5 C8         -11.2520    18.1200   -11.3270 c3         1 ORF       0.166600
      6 C10        -12.4950    19.7320    -9.8620 cx         1 ORF      -0.132700
      7 C15        -11.0400    20.8400   -13.6730 cc         1 ORF      -0.202000
      8 C21        -11.0430    23.1150   -16.6660 ca         1 ORF       0.301900
      9 C24        -12.7650    22.3500   -14.7300 ca         1 ORF       0.077000
     10 C26         -7.4710    13.8880   -12.1240 cp         1 ORF      -0.059000
     11 C11        -13.9420    19.3800   -10.0250 cx         1 ORF      -0.129400
     12 C12        -13.4240    19.8310    -8.6920 cx         1 ORF      -0.129400
     13 C14        -11.7220    19.7610   -13.1460 cd         1 ORF      -0.088000
     14 C16         -9.8100    20.8320   -12.9790 cc         1 ORF       0.284900
     15 C18        -11.4900    21.7810   -14.6890 ca         1 ORF       0.036000
     16 C19        -10.6450    22.2040   -15.7090 ca         1 ORF       0.127000
     17 C23        -13.1070    23.2590   -15.7220 ca         1 ORF       0.331900
     18 C27         -7.8940    12.5720   -12.2000 ca         1 ORF       0.205000
     19 C29         -7.0030    11.5250   -12.3830 ca         1 ORF       0.073000
     20 C3          -9.3580    15.3250   -12.8160 ca         1 ORF      -0.175000
     21 C31         -5.6500    11.7910   -12.5030 ca         1 ORF      -0.061000
     22 C32         -5.1990    13.0990   -12.4470 ca         1 ORF      -0.111000
     23 C33         -6.1040    14.1270   -12.2580 ca         1 ORF       0.038800
     24 C35         -4.7860    16.0310   -11.3400 cc         1 ORF       0.390400
     25 C9         -11.4500    18.6470    -9.9060 c3         1 ORF      -0.056400
     26 F20         -9.4070    21.7070   -15.7720 f          1 ORF      -0.159000
     27 F28         -9.1880    12.3050   -12.0660 f          1 ORF      -0.141000
     28 N13        -10.9220    19.2110   -12.2290 na         1 ORF       0.141800
     29 N17         -9.7620    19.8530   -12.1020 nd         1 ORF      -0.532800
     30 N2         -10.2420    16.3300   -12.6200 na         1 ORF       0.477300
     31 N22        -12.2620    23.6330   -16.6670 nb         1 ORF      -0.643000
     32 N34         -5.6340    15.4590   -12.2020 na         1 ORF      -0.006500
     33 N36         -4.6560    17.2850   -11.6760 nd         1 ORF      -0.373000
     34 N37         -5.4330    17.4620   -12.7480 nd         1 ORF      -0.028000
     35 N38         -6.0240    16.3850   -13.0750 nc         1 ORF      -0.180800
     36 O1         -11.0800    16.6130   -13.5270 o          1 ORF      -0.509000
     37 CL30        -7.6010     9.9190   -12.4470 cl         1 ORF      -0.138000
     38 H1          -7.6930    15.4170    -9.8800 ha         1 ORF       0.132000
     39 H2          -9.3010    17.2610    -9.5490 ha         1 ORF       0.143000
     40 H3         -12.2080    17.7230   -11.6750 h1         1 ORF       0.096700
     41 H4         -12.1880    20.6790   -10.2940 hc         1 ORF       0.093700
     42 H5         -10.3560    23.4220   -17.4470 h4         1 ORF       0.040100
     43 H6         -14.5740    20.0540   -10.5900 hc         1 ORF       0.072450
     44 H7         -14.1990    18.3330   -10.1390 hc         1 ORF       0.072450
     45 H8         -13.7000    20.8160    -8.3390 hc         1 ORF       0.072450
     46 H9         -13.3320    19.0880    -7.9090 hc         1 ORF       0.072450
     47 H10        -12.6910    19.3470   -13.3720 h4         1 ORF       0.169000
     48 H11         -8.9820    21.5180   -13.0770 h4         1 ORF       0.046100
     49 H12        -14.0980    23.6960   -15.7370 h4         1 ORF       0.036100
     50 H13         -9.4260    14.8370   -13.7770 h4         1 ORF       0.178000
     51 H14         -4.9510    10.9800   -12.6500 ha         1 ORF       0.146000
     52 H15         -4.1450    13.3130   -12.5620 ha         1 ORF       0.143000
     53 H16         -4.3180    15.5180   -10.5150 h5         1 ORF       0.078100
     54 H17        -11.7550    17.8080    -9.2750 hc         1 ORF       0.060200
     55 H18        -10.5110    19.0300    -9.5010 hc         1 ORF       0.060200
     56 CL25       -13.9470    21.9740   -13.5310 cl         1 ORF      -0.187000
@<TRIPOS>BOND
     1     1     2 ar  
     2     1    10 1   
     3     1    20 ar  
     4     2     3 ar  
     5     2    38 1   
     6     3     4 ar  
     7     3    39 1   
     8     4     5 1   
     9     4    30 2   
    10     5    25 1   
    11     5    28 1   
    12     5    40 1   
    13     6    11 1   
    14     6    12 1   
    15     6    25 1   
    16     6    41 1   
    17     7    13 2   
    18     7    14 1   
    19     7    15 1   
    20     8    16 ar  
    21     8    31 ar  
    22     8    42 1   
    23     9    15 ar  
    24     9    17 ar  
    25     9    56 1   
    26    10    18 ar  
    27    10    23 ar  
    28    11    12 1   
    29    11    43 1   
    30    11    44 1   
    31    12    45 1   
    32    12    46 1   
    33    13    28 1   
    34    13    47 1   
    35    14    29 2   
    36    14    48 1   
    37    15    16 ar  
    38    16    26 1   
    39    17    31 ar  
    40    17    49 1   
    41    18    19 ar  
    42    18    27 1   
    43    19    21 ar  
    44    19    37 1   
    45    20    30 1   
    46    20    50 1   
    47    21    22 ar  
    48    21    51 1   
    49    22    23 ar  
    50    22    52 1   
    51    23    32 1   
    52    24    32 1   
    53    24    33 2   
    54    24    53 1   
    55    25    54 1   
    56    25    55 1   
    57    28    29 1   
    58    30    36 1   
    59    32    35 1   
    60    33    34 1   
    61    34    35 2   
@<TRIPOS>SUBSTRUCTURE
     1 ORF         1 TEMP              0 ****  ****    0 ROOT
