@<TRIPOS>MOLECULE
ORF
   56    61     1     0     0
SMALL
No Charge or Current Charge


@<TRIPOS>ATOM
      1 C4          -8.4550    15.0230   -11.8020 cp         1 ORF      -0.011000
      2 C5          -8.2200    16.0180   -10.8290 ca         1 ORF      -0.119000
      3 C6          -9.1330    17.0590   -10.6420 ca         1 ORF      -0.053000
      4 C7         -10.2900    17.1140   -11.4400 ca         1 ORF      -0.135600
      5 C8         -11.3160    18.2480   -11.2670 c3         1 ORF       0.166600
      6 C10        -12.8690    19.4720    -9.6220 cx         1 ORF      -0.132700
      7 C15        -10.8770    21.1430   -13.4190 cc         1 ORF      -0.202000
      8 C21        -10.3920    23.3950   -16.4490 ca         1 ORF       0.301900
      9 C24        -12.4800    22.1800   -15.1240 ca         1 ORF       0.077000
     10 C26         -7.4710    13.9150   -11.9910 cp         1 ORF      -0.059000
     11 C11        -14.2830    18.9670    -9.7850 cx         1 ORF      -0.129400
     12 C12        -13.7780    19.3760    -8.4200 cx         1 ORF      -0.129400
     13 C14        -11.5870    20.0200   -13.0990 cd         1 ORF      -0.088000
     14 C16         -9.7660    21.1500   -12.5540 cc         1 ORF       0.284900
     15 C18        -11.1670    21.9700   -14.6130 ca         1 ORF       0.036000
     16 C19        -10.1130    22.6210   -15.3060 ca         1 ORF       0.127000
     17 C23        -12.6560    22.9790   -16.2750 ca         1 ORF       0.331900
     18 C27         -7.8150    12.5870   -11.6280 ca         1 ORF       0.205000
     19 C29         -6.8980    11.5260   -11.7880 ca         1 ORF       0.073000
     20 C3          -9.6220    15.0640   -12.6080 ca         1 ORF      -0.175000
     21 C31         -5.6180    11.7670   -12.3170 ca         1 ORF      -0.061000
     22 C32         -5.2500    13.0700   -12.6950 ca         1 ORF      -0.111000
     23 C33         -6.1700    14.1190   -12.5340 ca         1 ORF       0.038800
     24 C35         -5.0380    16.2700   -12.2530 cc         1 ORF       0.390400
     25 C9         -11.6750    18.5320    -9.7830 c3         1 ORF      -0.056400
     26 F20         -8.8230    22.4780   -14.9190 f          1 ORF      -0.159000
     27 F28         -9.0380    12.3300   -11.1080 f          1 ORF      -0.141000
     28 N13        -10.9150    19.4680   -12.0030 na         1 ORF       0.141800
     29 N17         -9.7650    20.1760   -11.6690 nd         1 ORF      -0.532800
     30 N2         -10.4850    16.1520   -12.4460 na         1 ORF       0.477300
     31 N22        -11.6400    23.5780   -16.9400 nb         1 ORF      -0.643000
     32 N34         -5.8900    15.4330   -12.9090 na         1 ORF      -0.006500
     33 N36         -4.9910    17.3680   -12.9870 nd         1 ORF      -0.373000
     34 N37         -5.8070    17.1480   -14.0850 nd         1 ORF      -0.028000
     35 N38         -6.3470    15.9550   -14.0660 nc         1 ORF      -0.180800
     36 O1         -11.4190    16.2750   -13.2500 o          1 ORF      -0.509000
     37 Cl30        -7.3400     9.8820   -11.3260 cl         1 ORF      -0.138000
     38 H1          -7.3260    15.9720   -10.2110 ha         1 ORF       0.132000
     39 H2          -8.9320    17.8160    -9.8880 ha         1 ORF       0.143000
     40 H3         -12.2590    17.9190   -11.7220 h1         1 ORF       0.096700
     41 H4         -12.6650    20.4750    -9.9930 hc         1 ORF       0.093700
     42 H5          -9.5840    23.8820   -16.9940 h4         1 ORF       0.040100
     43 H6         -15.0000    19.6190   -10.2790 hc         1 ORF       0.072450
     44 H7         -14.4320    17.9050    -9.9710 hc         1 ORF       0.072450
     45 H8         -14.1570    20.3040    -7.9960 hc         1 ORF       0.072450
     46 H9         -13.5890    18.5890    -7.6930 hc         1 ORF       0.072450
     47 H10        -12.4540    19.5480   -13.5460 h4         1 ORF       0.169000
     48 H11         -8.9480    21.8570   -12.5340 h4         1 ORF       0.046100
     49 H12        -13.6550    23.1600   -16.6690 h4         1 ORF       0.036100
     50 H13         -9.8500    14.3280   -13.3770 h4         1 ORF       0.178000
     51 H14         -4.9160    10.9450   -12.4390 ha         1 ORF       0.146000
     52 H15         -4.2650    13.2590   -13.1160 ha         1 ORF       0.143000
     53 H16         -4.5300    16.0440   -11.3240 h5         1 ORF       0.078100
     54 H17        -11.8870    17.5750    -9.2900 hc         1 ORF       0.060200
     55 H18        -10.8110    18.9630    -9.2650 hc         1 ORF       0.060200
     56 Cl25       -13.9450    21.5860   -14.3250 cl         1 ORF      -0.187000
@<TRIPOS>BOND
     1     1     2 ar  
     2     1    10 1   
     3     1    20 ar  
     4     2     3 ar  
     5     2    38 1   
     6     3     4 ar  
     7     3    39 1   
     8     4     5 1   
     9     4    30 2   
    10     5    25 1   
    11     5    28 1   
    12     5    40 1   
    13     6    11 1   
    14     6    12 1   
    15     6    25 1   
    16     6    41 1   
    17     7    13 2   
    18     7    14 1   
    19     7    15 1   
    20     8    16 ar  
    21     8    31 ar  
    22     8    42 1   
    23     9    15 ar  
    24     9    17 ar  
    25     9    56 1   
    26    10    18 ar  
    27    10    23 ar  
    28    11    12 1   
    29    11    43 1   
    30    11    44 1   
    31    12    45 1   
    32    12    46 1   
    33    13    28 1   
    34    13    47 1   
    35    14    29 2   
    36    14    48 1   
    37    15    16 ar  
    38    16    26 1   
    39    17    31 ar  
    40    17    49 1   
    41    18    19 ar  
    42    18    27 1   
    43    19    21 ar  
    44    19    37 1   
    45    20    30 1   
    46    20    50 1   
    47    21    22 ar  
    48    21    51 1   
    49    22    23 ar  
    50    22    52 1   
    51    23    32 1   
    52    24    32 1   
    53    24    33 2   
    54    24    53 1   
    55    25    54 1   
    56    25    55 1   
    57    28    29 1   
    58    30    36 1   
    59    32    35 1   
    60    33    34 1   
    61    34    35 2   
@<TRIPOS>SUBSTRUCTURE
     1 ORF         1 TEMP              0 ****  ****    0 ROOT
