@<TRIPOS>MOLECULE
ORG
   42    44     1     0     0
SMALL
No Charge or Current Charge


@<TRIPOS>ATOM
      1 N1          -0.8330     1.4030    -0.2400 nb         1 ORG      -0.291000
      2 C2          -0.6080     0.0810    -0.2800 ca         1 ORG       0.441900
      3 N3           0.5870    -0.5120    -0.2090 nb         1 ORG      -0.367000
      4 C4           1.6340     0.3250    -0.0820 ca         1 ORG       0.452900
      5 N5           1.5320     1.6670    -0.0250 nb         1 ORG      -0.299000
      6 C6           0.2780     2.1550    -0.1090 ca         1 ORG       0.316000
      7 N7          -1.6840    -0.7760    -0.4170 nu         1 ORG      -0.908100
      8 N8           2.9310    -0.2460     0.0060 nh         1 ORG      -0.760300
      9 C9           0.1120     3.5850    -0.0560 cg         1 ORG       0.235000
     10 C10          4.1680     0.6070    -0.1190 c6         1 ORG       0.183800
     11 C11          5.4360    -0.0420     0.5260 c6         1 ORG       0.130300
     12 N12          5.6660    -1.4440     0.0780 n7         1 ORG      -0.844400
     13 C13          4.4610    -2.2780     0.3500 c6         1 ORG       0.130300
     14 C14          3.1600    -1.7050    -0.3010 c6         1 ORG       0.183800
     15 N15         -0.0270     4.7460    -0.0200 n1         1 ORG      -0.425000
     16 C16         -3.1070    -0.4010    -0.3760 c6         1 ORG       0.246500
     17 C17         -3.9500    -1.5280    -1.0260 c6         1 ORG      -0.090900
     18 C18         -5.4650    -1.2100    -0.9540 c6         1 ORG      -0.070900
     19 C19         -5.9140    -0.9600     0.5070 c6         1 ORG      -0.078400
     20 C20         -5.0700     0.1570     1.1700 c6         1 ORG      -0.070900
     21 C21         -3.5560    -0.1630     1.0910 c6         1 ORG      -0.090900
     22 HN7         -1.4400    -1.7650    -0.4280 hn         1 ORG       0.504000
     23 H10          4.3750     0.8020    -1.1820 h1         1 ORG       0.068950
     24 H10A         4.0280     1.5850     0.3640 h1         1 ORG       0.068950
     25 H11          6.3160     0.5740     0.2910 h1         1 ORG       0.064450
     26 H11A         5.3170    -0.0280     1.6210 h1         1 ORG       0.064450
     27 HN12         5.8280    -1.4350    -0.9380 hn         1 ORG       0.405000
     28 H13          4.6260    -3.3030    -0.0150 h1         1 ORG       0.064450
     29 H13A         4.3070    -2.3450     1.4380 h1         1 ORG       0.064450
     30 H14          2.3240    -2.3230     0.0570 h1         1 ORG       0.068950
     31 H14A         3.2190    -1.8470    -1.3900 h1         1 ORG       0.068950
     32 H16         -3.2770     0.5210    -0.9560 h1         1 ORG       0.080700
     33 H17         -3.6520    -1.6590    -2.0760 hc         1 ORG       0.047700
     34 H17A        -3.7540    -2.4840    -0.5220 hc         1 ORG       0.047700
     35 H18         -5.6880    -0.3250    -1.5660 hc         1 ORG       0.044700
     36 H18A        -6.0420    -2.0400    -1.3840 hc         1 ORG       0.044700
     37 H19         -6.9780    -0.6860     0.5290 hc         1 ORG       0.041200
     38 H19A        -5.8200    -1.8890     1.0870 hc         1 ORG       0.041200
     39 H20         -5.2720     1.1170     0.6750 hc         1 ORG       0.044700
     40 H20A        -5.3710     0.2780     2.2200 hc         1 ORG       0.044700
     41 H21         -3.3370    -1.0530     1.6980 hc         1 ORG       0.047700
     42 H21A        -2.9850     0.6640     1.5330 hc         1 ORG       0.047700
@<TRIPOS>BOND
     1     1     2 ar  
     2     1     6 ar  
     3     2     3 ar  
     4     2     7 1   
     5     3     4 ar  
     6     4     5 ar  
     7     4     8 1   
     8     5     6 ar  
     9     6     9 1   
    10     7    16 1   
    11     7    22 1   
    12     8    10 1   
    13     8    14 1   
    14     9    15 3   
    15    10    11 1   
    16    10    23 1   
    17    10    24 1   
    18    11    12 1   
    19    11    25 1   
    20    11    26 1   
    21    12    13 1   
    22    12    27 1   
    23    13    14 1   
    24    13    28 1   
    25    13    29 1   
    26    14    30 1   
    27    14    31 1   
    28    16    17 1   
    29    16    21 1   
    30    16    32 1   
    31    17    18 1   
    32    17    33 1   
    33    17    34 1   
    34    18    19 1   
    35    18    35 1   
    36    18    36 1   
    37    19    20 1   
    38    19    37 1   
    39    19    38 1   
    40    20    21 1   
    41    20    39 1   
    42    20    40 1   
    43    21    41 1   
    44    21    42 1   
@<TRIPOS>SUBSTRUCTURE
     1 ORG         1 TEMP              0 ****  ****    0 ROOT
