@<TRIPOS>MOLECULE
ORG
   42    44     1     0     0
SMALL
bcc


@<TRIPOS>ATOM
      1 N1          -0.7950     1.2870    -0.1910 nb         1 ORG      -0.817000
      2 C2          -0.5600    -0.0340    -0.3480 ca         1 ORG       0.967900
      3 N3           0.6530    -0.5740    -0.4460 nb         1 ORG      -0.893000
      4 C4           1.6880     0.2600    -0.3790 ca         1 ORG       0.978900
      5 N5           1.5560     1.5990    -0.2100 nb         1 ORG      -0.825000
      6 C6           0.3100     1.9940    -0.1340 ca         1 ORG       0.842000
      7 N7          -1.6080    -0.8500    -0.4180 nu         1 ORG      -0.852900
      8 N8           2.9250    -0.2300    -0.4890 nh         1 ORG      -0.760300
      9 C9           0.1230     3.4240     0.0420 cg         1 ORG       0.145800
     10 C10          4.1220     0.5910    -0.3880 c6         1 ORG       0.183800
     11 C11          5.0240     0.0540     0.7200 c6         1 ORG       0.130300
     12 N12          5.3300    -1.3590     0.5890 n7         1 ORG      -0.789200
     13 C13          4.1210    -2.1480     0.4290 c6         1 ORG       0.130300
     14 C14          3.1990    -1.6440    -0.6790 c6         1 ORG       0.183800
     15 N15         -0.0260     4.5560     0.1790 n1         1 ORG      -0.335800
     16 C16         -2.9990    -0.4490    -0.2980 c6         1 ORG       0.246500
     17 C17         -3.8790    -1.4930    -0.9800 c6         1 ORG      -0.090900
     18 C18         -5.3550    -1.1250    -0.8710 c6         1 ORG      -0.070900
     19 C19         -5.7770    -0.9030     0.5770 c6         1 ORG      -0.078400
     20 C20         -4.8900     0.1330     1.2590 c6         1 ORG      -0.070900
     21 C21         -3.4160    -0.2440     1.1570 c6         1 ORG      -0.090900
     22 HN7         -1.3990    -1.8350    -0.4880 hn         1 ORG       0.448800
     23 H10          4.6520     0.5570    -1.3460 h1         1 ORG       0.068950
     24 H10A         3.8470     1.6240    -0.1960 h1         1 ORG       0.068950
     25 H11          5.9540     0.6240     0.7300 h1         1 ORG       0.064450
     26 H11A         4.5370     0.2190     1.6860 h1         1 ORG       0.064450
     27 HN12         5.9280    -1.4970    -0.2180 hn         1 ORG       0.349800
     28 H13          4.3940    -3.1840     0.2230 h1         1 ORG       0.064450
     29 H13A         3.5720    -2.1410     1.3750 h1         1 ORG       0.064450
     30 H14          2.2670    -2.2030    -0.6890 h1         1 ORG       0.068950
     31 H14A         3.6780    -1.7790    -1.6550 h1         1 ORG       0.068950
     32 H16         -3.1170     0.4990    -0.8300 h1         1 ORG       0.080700
     33 H17         -3.5890    -1.5910    -2.0290 hc         1 ORG       0.047700
     34 H17A        -3.7100    -2.4700    -0.5110 hc         1 ORG       0.047700
     35 H18         -5.5410    -0.2120    -1.4460 hc         1 ORG       0.044700
     36 H18A        -5.9630    -1.9070    -1.3290 hc         1 ORG       0.044700
     37 H19         -6.8230    -0.5920     0.6190 hc         1 ORG       0.041200
     38 H19A        -5.7140    -1.8490     1.1250 hc         1 ORG       0.041200
     39 H20         -5.0500     1.1120     0.7940 hc         1 ORG       0.044700
     40 H20A        -5.1710     0.2440     2.3090 hc         1 ORG       0.044700
     41 H21         -3.2320    -1.1700     1.7130 hc         1 ORG       0.047700
     42 H21A        -2.7910     0.5290     1.6110 hc         1 ORG       0.047700
@<TRIPOS>BOND
     1     1     2 ar  
     2     1     6 ar  
     3     2     3 ar  
     4     2     7 1   
     5     3     4 ar  
     6     4     5 ar  
     7     4     8 1   
     8     5     6 ar  
     9     6     9 1   
    10     7    16 1   
    11     7    22 1   
    12     8    10 1   
    13     8    14 1   
    14     9    15 3   
    15    10    11 1   
    16    10    23 1   
    17    10    24 1   
    18    11    12 1   
    19    11    25 1   
    20    11    26 1   
    21    12    13 1   
    22    12    27 1   
    23    13    14 1   
    24    13    28 1   
    25    13    29 1   
    26    14    30 1   
    27    14    31 1   
    28    16    17 1   
    29    16    21 1   
    30    16    32 1   
    31    17    18 1   
    32    17    33 1   
    33    17    34 1   
    34    18    19 1   
    35    18    35 1   
    36    18    36 1   
    37    19    20 1   
    38    19    37 1   
    39    19    38 1   
    40    20    21 1   
    41    20    39 1   
    42    20    40 1   
    43    21    41 1   
    44    21    42 1   
@<TRIPOS>SUBSTRUCTURE
     1 ORG         1 TEMP              0 ****  ****    0 ROOT
