@<TRIPOS>MOLECULE
ORH
   49    51     1     0     0
SMALL
abcg2


@<TRIPOS>ATOM
      1 C1          -4.0400    -0.7660    -1.0020 c3         1 ORH       0.175800
      2 F1           6.3520    -0.5640    -1.2930 f          1 ORH      -0.109667
      3 N1          -5.1840    -0.9570    -0.1350 n3         1 ORH      -0.720600
      4 O1          -1.7500     3.0990    -0.8770 o          1 ORH      -0.471000
      5 C2          -2.8920    -0.0240    -0.3270 c3         1 ORH      -0.099400
      6 F2           4.8650    -2.0000    -1.8820 f          1 ORH      -0.109667
      7 N2          -0.7080     1.0730    -0.7510 n          1 ORH      -0.366400
      8 C3          -1.8490     0.3800    -1.3590 c3         1 ORH       0.095000
      9 F3           6.2560    -2.4740    -0.3100 f          1 ORH      -0.109667
     10 N3           1.4230     1.0310     0.2210 n          1 ORH      -0.076000
     11 C4           0.3620     0.3100    -0.3340 c          1 ORH       0.601000
     12 N4           1.4210     2.3240     0.4330 nc         1 ORH      -0.337300
     13 C5          -0.7940     2.4330    -0.5570 c          1 ORH       0.480700
     14 C6           0.3940     3.0060     0.0790 cd         1 ORH       0.291200
     15 C7           3.4280    -0.2470    -0.2620 ca         1 ORH      -0.035000
     16 C8           4.5600    -0.9150     0.1830 ca         1 ORH      -0.190300
     17 C9           2.5810     0.3230     0.6700 ca         1 ORH       0.046600
     18 C10          4.8380    -0.9970     1.5420 ca         1 ORH      -0.047000
     19 C11          2.8370     0.2450     2.0280 ca         1 ORH      -0.058000
     20 C12          3.9770    -0.4150     2.4600 ca         1 ORH      -0.110000
     21 C14          0.4100     4.4110     0.3240 ch         1 ORH       0.308800
     22 C15         -6.3570    -1.3610    -0.8930 c6         1 ORH       0.168800
     23 N15          0.4070     5.5450     0.5180 n1         1 ORH      -0.398000
     24 C17         -7.5930    -1.4190    -0.0080 c6         1 ORH      -0.075400
     25 C18         -4.9180    -1.8900     0.9480 c6         1 ORH       0.168800
     26 C19         -7.3720    -2.3590     1.1700 c6         1 ORH      -0.075400
     27 C20         -6.0960    -1.9730     1.9070 c6         1 ORH      -0.075400
     28 H1          -3.6670    -1.7220    -1.4120 h1         1 ORH       0.031200
     29 H1A         -4.3720    -0.1760    -1.8620 h1         1 ORH       0.031200
     30 H2          -3.2880     0.8650     0.1710 hc         1 ORH       0.061700
     31 H2A         -2.4200    -0.6440     0.4380 hc         1 ORH       0.061700
     32 H3          -1.4670    -0.4880    -1.8910 h1         1 ORH       0.075200
     33 H3A         -2.2770     1.0510    -2.1010 h1         1 ORH       0.075200
     34 H7           3.2030    -0.1570    -1.3170 ha         1 ORH       0.144000
     35 H10          5.7200    -1.5110     1.9000 ha         1 ORH       0.137000
     36 H11          2.1570     0.6930     2.7400 ha         1 ORH       0.135000
     37 H12          4.1930    -0.4820     3.5170 ha         1 ORH       0.131000
     38 H15         -6.5130    -0.6400    -1.7000 h1         1 ORH       0.029200
     39 H15A        -6.2090    -2.3450    -1.3730 h1         1 ORH       0.029200
     40 H17         -7.8160    -0.4130     0.3610 hc         1 ORH       0.046700
     41 H17A        -8.4510    -1.7380    -0.6040 hc         1 ORH       0.046700
     42 H18         -4.6940    -2.8990     0.5550 h1         1 ORH       0.029200
     43 H18A        -4.0320    -1.5640     1.4950 h1         1 ORH       0.029200
     44 H19         -8.2300    -2.3410     1.8460 hc         1 ORH       0.038700
     45 H19A        -7.2830    -3.3870     0.8030 hc         1 ORH       0.038700
     46 H20         -5.8690    -2.6950     2.6950 hc         1 ORH       0.046700
     47 H20A        -6.2290    -1.0020     2.3930 hc         1 ORH       0.046700
     48 O2           0.4100    -0.8880    -0.4310 o          1 ORH      -0.500000
     49 C13          5.5080    -1.4940    -0.8240 c3         1 ORH       0.360300
@<TRIPOS>BOND
     1     1     3 1   
     2     1     5 1   
     3     1    28 1   
     4     1    29 1   
     5     2    49 1   
     6     3    22 1   
     7     3    25 1   
     8     4    13 2   
     9     5     8 1   
    10     5    30 1   
    11     5    31 1   
    12     6    49 1   
    13     7     8 1   
    14     7    11 1   
    15     7    13 1   
    16     8    32 1   
    17     8    33 1   
    18     9    49 1   
    19    10    11 1   
    20    10    12 1   
    21    10    17 1   
    22    11    48 2   
    23    12    14 2   
    24    13    14 1   
    25    14    21 1   
    26    15    16 ar  
    27    15    17 ar  
    28    15    34 1   
    29    16    18 ar  
    30    16    49 1   
    31    17    19 ar  
    32    18    20 ar  
    33    18    35 1   
    34    19    20 ar  
    35    19    36 1   
    36    20    37 1   
    37    21    23 3   
    38    22    24 1   
    39    22    38 1   
    40    22    39 1   
    41    24    26 1   
    42    24    40 1   
    43    24    41 1   
    44    25    27 1   
    45    25    42 1   
    46    25    43 1   
    47    26    27 1   
    48    26    44 1   
    49    26    45 1   
    50    27    46 1   
    51    27    47 1   
@<TRIPOS>SUBSTRUCTURE
     1 ORH         1 TEMP              0 ****  ****    0 ROOT
