@<TRIPOS>MOLECULE
ORH
   49    51     1     0     0
SMALL
No Charge or Current Charge


@<TRIPOS>ATOM
      1 C1          -4.1230    -0.6150    -1.0540 c3         1 ORH       0.175800
      2 F1           6.1580    -1.2440    -1.5230 f          1 ORH      -0.109667
      3 N1          -5.2650    -0.9430    -0.1660 n3         1 ORH      -0.720600
      4 O1          -1.7250     3.2900    -0.8410 o          1 ORH      -0.471000
      5 C2          -2.9370     0.0820    -0.3520 c3         1 ORH      -0.099400
      6 F2           4.4600    -2.5970    -1.6300 f          1 ORH      -0.109667
      7 N2          -0.7110     1.2240    -0.6690 n          1 ORH      -0.366400
      8 C3          -1.8590     0.5580    -1.3460 c3         1 ORH       0.095000
      9 F3           6.0210    -2.9350    -0.1640 f          1 ORH      -0.109667
     10 N3           1.4810     1.1220     0.3200 n          1 ORH      -0.076000
     11 C4           0.3920     0.4350    -0.2850 c          1 ORH       0.601000
     12 N4           1.5160     2.4870     0.5410 nc         1 ORH      -0.337300
     13 C5          -0.7540     2.6260    -0.4880 c          1 ORH       0.480700
     14 C6           0.4610     3.2100     0.1640 cd         1 ORH       0.291200
     15 C7           3.3720    -0.4000    -0.1730 ca         1 ORH      -0.035000
     16 C8           4.5450    -1.0800     0.2240 ca         1 ORH      -0.190300
     17 C9           2.6720     0.4260     0.7310 ca         1 ORH       0.046600
     18 C10          5.0240    -0.9070     1.5400 ca         1 ORH      -0.047000
     19 C11          3.1650     0.5860     2.0410 ca         1 ORH      -0.058000
     20 C12          4.3360    -0.0790     2.4420 ca         1 ORH      -0.110000
     21 C14          0.4730     4.6180     0.3800 ch         1 ORH       0.308800
     22 C15         -6.4570    -1.3810    -0.9480 c6         1 ORH       0.168800
     23 N15          0.5100     5.7720     0.5700 n1         1 ORH      -0.398000
     24 C17         -7.6930    -1.6000    -0.0420 c6         1 ORH      -0.075400
     25 C18         -4.9300    -1.9340     0.9010 c6         1 ORH       0.168800
     26 C19         -7.3840    -2.6160     1.0810 c6         1 ORH      -0.075400
     27 C20         -6.1240    -2.1750     1.8580 c6         1 ORH      -0.075400
     28 H1          -3.7560    -1.5260    -1.5470 h1         1 ORH       0.031200
     29 H1A         -4.4730     0.0580    -1.8500 h1         1 ORH       0.031200
     30 H2          -3.3110     0.9430     0.2140 hc         1 ORH       0.061700
     31 H2A         -2.4720    -0.6040     0.3640 hc         1 ORH       0.061700
     32 H3          -1.5010    -0.3010    -1.9290 h1         1 ORH       0.075200
     33 H3A         -2.3150     1.2460    -2.0710 h1         1 ORH       0.075200
     34 H7           3.0040    -0.5050    -1.1920 ha         1 ORH       0.144000
     35 H10          5.9340    -1.4060     1.8700 ha         1 ORH       0.137000
     36 H11          2.6400     1.2230     2.7480 ha         1 ORH       0.135000
     37 H12          4.7120     0.0500     3.4550 ha         1 ORH       0.131000
     38 H15         -6.7110    -0.6280    -1.7070 h1         1 ORH       0.029200
     39 H15A        -6.2360    -2.3170    -1.4830 h1         1 ORH       0.029200
     40 H17         -7.9990    -0.6410     0.3980 hc         1 ORH       0.046700
     41 H17A        -8.5400    -1.9530    -0.6460 hc         1 ORH       0.046700
     42 H18         -4.6340    -2.8920     0.4490 h1         1 ORH       0.029200
     43 H18A        -4.0820    -1.5860     1.5060 h1         1 ORH       0.029200
     44 H19         -8.2410    -2.7010     1.7630 hc         1 ORH       0.038700
     45 H19A        -7.2230    -3.6120     0.6460 hc         1 ORH       0.038700
     46 H20         -5.8560    -2.9370     2.6020 hc         1 ORH       0.046700
     47 H20A        -6.3360    -1.2520     2.4160 hc         1 ORH       0.046700
     48 O2           0.4020    -0.7780    -0.4510 o          1 ORH      -0.500000
     49 C13          5.2970    -1.9680    -0.7740 c3         1 ORH       0.360300
@<TRIPOS>BOND
     1     1     3 1   
     2     1     5 1   
     3     1    28 1   
     4     1    29 1   
     5     2    49 1   
     6     3    22 1   
     7     3    25 1   
     8     4    13 2   
     9     5     8 1   
    10     5    30 1   
    11     5    31 1   
    12     6    49 1   
    13     7     8 1   
    14     7    11 1   
    15     7    13 1   
    16     8    32 1   
    17     8    33 1   
    18     9    49 1   
    19    10    11 1   
    20    10    12 1   
    21    10    17 1   
    22    11    48 2   
    23    12    14 2   
    24    13    14 1   
    25    14    21 1   
    26    15    16 ar  
    27    15    17 ar  
    28    15    34 1   
    29    16    18 ar  
    30    16    49 1   
    31    17    19 ar  
    32    18    20 ar  
    33    18    35 1   
    34    19    20 ar  
    35    19    36 1   
    36    20    37 1   
    37    21    23 3   
    38    22    24 1   
    39    22    38 1   
    40    22    39 1   
    41    24    26 1   
    42    24    40 1   
    43    24    41 1   
    44    25    27 1   
    45    25    42 1   
    46    25    43 1   
    47    26    27 1   
    48    26    44 1   
    49    26    45 1   
    50    27    46 1   
    51    27    47 1   
@<TRIPOS>SUBSTRUCTURE
     1 ORH         1 TEMP              0 ****  ****    0 ROOT
