@<TRIPOS>MOLECULE
ORI
   34    36     1     0     0
SMALL
No Charge or Current Charge


@<TRIPOS>ATOM
      1 OB4         -5.6270    -1.6820    -0.7560 o          1 ORI      -0.688867
      2 SB          -5.5850    -0.3410    -0.1530 s6         1 ORI       1.257100
      3 OB2         -5.9820     0.7780    -1.0220 o          1 ORI      -0.688867
      4 OB3         -6.0460    -0.2560     1.2420 o          1 ORI      -0.688867
      5 CB4         -3.7620    -0.0550     0.0510 ca         1 ORI      -0.186500
      6 CB5         -2.8860    -1.1410     0.2700 ca         1 ORI      -0.042500
      7 CB6         -1.5070    -0.9220     0.4330 ca         1 ORI      -0.098500
      8 CB3         -3.2330     1.2530     0.0130 ca         1 ORI      -0.042500
      9 CB2         -1.8530     1.4680     0.1770 ca         1 ORI      -0.098500
     10 CB1         -0.9830     0.3820     0.3830 ca         1 ORI       0.062400
     11 N2           0.3960     0.5990     0.5540 ne         1 ORI      -0.183400
     12 N1           1.0890     0.5990    -0.5070 nf         1 ORI      -0.235400
     13 C1           2.4820     0.8140    -0.3370 ca         1 ORI       0.113400
     14 C2           2.9520     2.1370    -0.2850 ca         1 ORI      -0.091000
     15 C3           4.3190     2.4000    -0.1230 ca         1 ORI      -0.133000
     16 C4           5.2360     1.3450    -0.0140 ca         1 ORI       0.107100
     17 OA1          6.5580     1.6590     0.1430 oh         1 ORI      -0.567100
     18 C5           4.7870     0.0010    -0.0680 ca         1 ORI      -0.063000
     19 C10          3.3990    -0.2650    -0.2330 ca         1 ORI       0.000000
     20 C6           5.6910    -1.0840     0.0360 ca         1 ORI      -0.101000
     21 C7           5.2290    -2.4080    -0.0220 ca         1 ORI      -0.112000
     22 C8           3.8630    -2.6700    -0.1860 ca         1 ORI      -0.118000
     23 C9           2.9520    -1.6070    -0.2910 ca         1 ORI      -0.074000
     24 H1          -3.2730    -2.1580     0.3160 ha         1 ORI       0.134500
     25 H2          -0.8430    -1.7670     0.6000 ha         1 ORI       0.109500
     26 H3          -3.8900     2.1070    -0.1420 ha         1 ORI       0.134500
     27 H4          -1.4570     2.4800     0.1440 ha         1 ORI       0.109500
     28 H5           2.2490     2.9640    -0.3690 ha         1 ORI       0.138000
     29 H6           4.6700     3.4280    -0.0820 ha         1 ORI       0.119000
     30 H7           7.0730     0.8280     0.2050 ho         1 ORI       0.456000
     31 H8           6.7580    -0.9220     0.1630 ha         1 ORI       0.114000
     32 H9           5.9340    -3.2340     0.0590 ha         1 ORI       0.106000
     33 H10          3.5070    -3.6970    -0.2310 ha         1 ORI       0.111000
     34 H11          1.8980    -1.8380    -0.4170 ha         1 ORI       0.140000
@<TRIPOS>BOND
     1     1     2 1   
     2     2     3 1   
     3     2     4 1   
     4     2     5 1   
     5     5     6 ar  
     6     5     8 ar  
     7     6     7 ar  
     8     6    24 1   
     9     7    10 ar  
    10     7    25 1   
    11     8     9 ar  
    12     8    26 1   
    13     9    10 ar  
    14     9    27 1   
    15    10    11 1   
    16    11    12 2   
    17    12    13 1   
    18    13    14 ar  
    19    13    19 ar  
    20    14    15 ar  
    21    14    28 1   
    22    15    16 ar  
    23    15    29 1   
    24    16    17 1   
    25    16    18 ar  
    26    17    30 1   
    27    18    19 ar  
    28    18    20 ar  
    29    19    23 ar  
    30    20    21 ar  
    31    20    31 1   
    32    21    22 ar  
    33    21    32 1   
    34    22    23 ar  
    35    22    33 1   
    36    23    34 1   
@<TRIPOS>SUBSTRUCTURE
     1 ORI         1 TEMP              0 ****  ****    0 ROOT
