@<TRIPOS>MOLECULE
ORI
   34    36     1     0     0
SMALL
bcc


@<TRIPOS>ATOM
      1 OB4         -5.6770    -1.5890    -0.7260 o          1 ORI      -0.688867
      2 SB          -5.5160    -0.3450     0.0440 s6         1 ORI       1.257100
      3 OB2         -6.2150     0.8080    -0.5470 o          1 ORI      -0.688867
      4 OB3         -5.7760    -0.5130     1.4840 o          1 ORI      -0.688867
      5 CB4         -3.7710     0.0540    -0.0420 ca         1 ORI      -0.186500
      6 CB5         -2.8270    -0.9700    -0.0720 ca         1 ORI      -0.060500
      7 CB6         -1.4780    -0.6730    -0.0640 ca         1 ORI      -0.116500
      8 CB3         -3.3610     1.3790    -0.0070 ca         1 ORI      -0.060500
      9 CB2         -2.0070     1.6770     0.0030 ca         1 ORI      -0.116500
     10 CB1         -1.0590     0.6590    -0.0230 ca         1 ORI       0.062400
     11 N2           0.2810     1.0810    -0.0020 ne         1 ORI      -0.183400
     12 N1           1.1230     0.1730    -0.0370 nf         1 ORI      -0.235400
     13 C1           2.4630     0.5780    -0.0110 ca         1 ORI       0.113400
     14 C2           2.8730     1.8930    -0.0010 ca         1 ORI      -0.109000
     15 C3           4.2310     2.2230     0.0230 ca         1 ORI      -0.151000
     16 C4           5.1880     1.2360     0.0400 ca         1 ORI       0.107100
     17 OA1          6.5050     1.5650     0.1160 oh         1 ORI      -0.528100
     18 C5           4.8120    -0.1330     0.0330 ca         1 ORI      -0.063000
     19 C10          3.4310    -0.4690     0.0050 ca         1 ORI       0.000000
     20 C6           5.7790    -1.1660     0.0580 ca         1 ORI      -0.119000
     21 C7           5.3940    -2.4780     0.0480 ca         1 ORI      -0.130000
     22 C8           4.0260    -2.8140     0.0150 ca         1 ORI      -0.136000
     23 C9           3.0690    -1.8370    -0.0050 ca         1 ORI      -0.092000
     24 H1          -3.1450    -2.0040    -0.1110 ha         1 ORI       0.152500
     25 H2          -0.7500    -1.4720    -0.0890 ha         1 ORI       0.127500
     26 H3          -4.0870     2.1800     0.0060 ha         1 ORI       0.152500
     27 H4          -1.6730     2.7070     0.0290 ha         1 ORI       0.127500
     28 H5           2.1360     2.6850    -0.0160 ha         1 ORI       0.156000
     29 H6           4.5330     3.2620     0.0330 ha         1 ORI       0.137000
     30 H7           6.8890     1.6340    -0.7670 ho         1 ORI       0.417000
     31 H8           6.8290    -0.9130     0.0880 ha         1 ORI       0.132000
     32 H9           6.1400    -3.2610     0.0670 ha         1 ORI       0.124000
     33 H10          3.7320    -3.8560     0.0080 ha         1 ORI       0.129000
     34 H11          2.0220    -2.1060    -0.0290 ha         1 ORI       0.158000
@<TRIPOS>BOND
     1     1     2 1   
     2     2     3 1   
     3     2     4 1   
     4     2     5 1   
     5     5     6 ar  
     6     5     8 ar  
     7     6     7 ar  
     8     6    24 1   
     9     7    10 ar  
    10     7    25 1   
    11     8     9 ar  
    12     8    26 1   
    13     9    10 ar  
    14     9    27 1   
    15    10    11 1   
    16    11    12 2   
    17    12    13 1   
    18    13    14 ar  
    19    13    19 ar  
    20    14    15 ar  
    21    14    28 1   
    22    15    16 ar  
    23    15    29 1   
    24    16    17 1   
    25    16    18 ar  
    26    17    30 1   
    27    18    19 ar  
    28    18    20 ar  
    29    19    23 ar  
    30    20    21 ar  
    31    20    31 1   
    32    21    22 ar  
    33    21    32 1   
    34    22    23 ar  
    35    22    33 1   
    36    23    34 1   
@<TRIPOS>SUBSTRUCTURE
     1 ORI         1 TEMP              0 ****  ****    0 ROOT
