@<TRIPOS>MOLECULE
ORJ
   36    38     1     0     0
SMALL
bcc


@<TRIPOS>ATOM
      1 N12         25.7310    36.1450   214.1630 nc         1 ORJ      -0.604100
      2 C13         26.0280    37.4130   213.7080 ca         1 ORJ       0.109400
      3 C15         25.6790    39.4160   212.4400 ca         1 ORJ      -0.163000
      4 C21         25.7960    32.9590   214.0920 ca         1 ORJ      -0.159000
      5 C22         24.8750    31.9510   213.8300 ca         1 ORJ       0.167100
      6 C01         23.5250    26.9020   213.5140 c3         1 ORJ       0.094300
      7 N02         23.0700    28.2700   213.6080 ns         1 ORJ      -0.582900
      8 C03         23.5900    29.1420   214.4820 c          1 ORJ       0.651100
      9 O04         24.5230    28.8670   215.2200 o          1 ORJ      -0.576100
     10 C06         23.8970    31.6160   214.7740 ca         1 ORJ      -0.154300
     11 C07         23.8700    32.3180   215.9700 ca         1 ORJ      -0.065000
     12 C08         24.7760    33.3320   216.2510 ca         1 ORJ      -0.154000
     13 C09         25.7310    33.6280   215.2990 ca         1 ORJ       0.136100
     14 C11         26.6380    35.7480   214.9670 cd         1 ORJ       0.603500
     15 C14         25.2590    38.1520   212.8140 ca         1 ORJ      -0.057000
     16 C16         26.8600    39.9280   212.9620 ca         1 ORJ       0.135900
     17 F17         27.2480    41.1560   212.5830 f          1 ORJ      -0.140900
     18 C18         27.6540    39.2340   213.8510 ca         1 ORJ      -0.127000
     19 C19         27.2150    37.9680   214.2110 ca         1 ORJ      -0.054100
     20 S20         27.9680    36.8350   215.2900 ss         1 ORJ      -0.054100
     21 H1          25.0980    40.0070   211.7450 ha         1 ORJ       0.154000
     22 H2          26.5540    33.2010   213.3570 ha         1 ORJ       0.163000
     23 H3          22.9740    26.4120   212.7170 h1         1 ORJ       0.042700
     24 H4          24.5870    26.8540   213.2780 h1         1 ORJ       0.042700
     25 H5          23.3530    26.3520   214.4410 h1         1 ORJ       0.042700
     26 H6          22.2730    28.5430   213.0570 hn         1 ORJ       0.311500
     27 H7          22.3490    30.6850   213.5870 hc         1 ORJ       0.064200
     28 H8          22.1760    30.4860   215.3040 hc         1 ORJ       0.064200
     29 H9          23.1190    32.0660   216.7080 ha         1 ORJ       0.135000
     30 H10         24.7440    33.8650   217.1910 ha         1 ORJ       0.152000
     31 H11         24.3420    37.7390   212.4170 ha         1 ORJ       0.155000
     32 H12         28.5690    39.6620   214.2390 ha         1 ORJ       0.161000
     33 H13         24.2560    30.7270   212.4740 ho         1 ORJ       0.427000
     34 O10         26.6880    34.5860   215.6000 os         1 ORJ      -0.306700
     35 O23         24.9960    31.3180   212.6460 oh         1 ORJ      -0.493100
     36 C05         22.9210    30.5100   214.5050 c3         1 ORJ      -0.119100
@<TRIPOS>BOND
     1     1     2 1   
     2     1    14 2   
     3     2    15 ar  
     4     2    19 ar  
     5     3    15 ar  
     6     3    16 ar  
     7     3    21 1   
     8     4     5 ar  
     9     4    13 ar  
    10     4    22 1   
    11     5    10 ar  
    12     5    35 1   
    13     6     7 1   
    14     6    23 1   
    15     6    24 1   
    16     6    25 1   
    17     7     8 1   
    18     7    26 1   
    19     8     9 2   
    20     8    36 1   
    21    10    11 ar  
    22    10    36 1   
    23    11    12 ar  
    24    11    29 1   
    25    12    13 ar  
    26    12    30 1   
    27    13    34 1   
    28    14    20 1   
    29    14    34 1   
    30    15    31 1   
    31    16    17 1   
    32    16    18 ar  
    33    18    19 ar  
    34    18    32 1   
    35    19    20 1   
    36    27    36 1   
    37    28    36 1   
    38    33    35 1   
@<TRIPOS>SUBSTRUCTURE
     1 ORJ         1 TEMP              0 ****  ****    0 ROOT
