@<TRIPOS>MOLECULE
ORJ
   36    38     1     0     0
SMALL
No Charge or Current Charge


@<TRIPOS>ATOM
      1 N12         25.7660    36.1220   214.0820 nc         1 ORJ      -0.604100
      2 C13         26.0870    37.4250   213.7140 ca         1 ORJ       0.109400
      3 C15         25.6590    39.5460   212.5930 ca         1 ORJ      -0.145000
      4 C21         25.5880    33.0090   213.7960 ca         1 ORJ      -0.141000
      5 C22         24.5830    32.0620   213.5470 ca         1 ORJ       0.167100
      6 C01         23.8670    26.8860   213.8600 c3         1 ORJ       0.094300
      7 N02         23.3820    28.2610   213.7210 ns         1 ORJ      -0.515900
      8 C03         23.1850    29.1220   214.7790 c          1 ORJ       0.584100
      9 O04         23.4000    28.7850   215.9350 o          1 ORJ      -0.576100
     10 C06         23.7700    31.5880   214.6060 ca         1 ORJ      -0.154300
     11 C07         23.9880    32.0870   215.9080 ca         1 ORJ      -0.047000
     12 C08         24.9920    33.0390   216.1500 ca         1 ORJ      -0.136000
     13 C09         25.7840    33.5080   215.0940 ca         1 ORJ       0.136100
     14 C11         26.7990    35.6850   214.8260 cd         1 ORJ       0.603500
     15 C14         25.2550    38.2340   212.9190 ca         1 ORJ      -0.039000
     16 C16         26.8910    40.0410   213.0620 ca         1 ORJ       0.171000
     17 F17         27.2740    41.2980   212.7470 f          1 ORJ      -0.176000
     18 C18         27.7250    39.2340   213.8560 ca         1 ORJ      -0.109000
     19 C19         27.2970    37.9320   214.1650 ca         1 ORJ      -0.181000
     20 S20         28.1790    36.7660   215.1370 ss         1 ORJ       0.072800
     21 H1          25.0210    40.1770   211.9800 ha         1 ORJ       0.136000
     22 H2          26.2120    33.3610   212.9800 ha         1 ORJ       0.145000
     23 H3          23.9370    26.4200   212.8680 h1         1 ORJ       0.042700
     24 H4          24.8590    26.8890   214.3290 h1         1 ORJ       0.042700
     25 H5          23.1710    26.3090   214.4820 h1         1 ORJ       0.042700
     26 H6          23.1690    28.6070   212.7930 hn         1 ORJ       0.311500
     27 H7          22.3040    30.5280   213.3780 hc         1 ORJ       0.064200
     28 H8          21.8330    30.7590   215.0700 hc         1 ORJ       0.064200
     29 H9          23.3830    31.7290   216.7380 ha         1 ORJ       0.117000
     30 H10         25.1560    33.4120   217.1580 ha         1 ORJ       0.134000
     31 H11         24.3040    37.8480   212.5600 ha         1 ORJ       0.137000
     32 H12         28.6760    39.6150   214.2190 ha         1 ORJ       0.143000
     33 H13         23.5610    31.1480   212.2120 ho         1 ORJ       0.466000
     34 O10         26.7810    34.4180   215.3520 os         1 ORJ      -0.306700
     35 O23         24.4170    31.6180   212.2680 oh         1 ORJ      -0.532100
     36 C05         22.6760    30.5260   214.4080 c3         1 ORJ      -0.119100
@<TRIPOS>BOND
     1     1     2 1   
     2     1    14 2   
     3     2    15 ar  
     4     2    19 ar  
     5     3    15 ar  
     6     3    16 ar  
     7     3    21 1   
     8     4     5 ar  
     9     4    13 ar  
    10     4    22 1   
    11     5    10 ar  
    12     5    35 1   
    13     6     7 1   
    14     6    23 1   
    15     6    24 1   
    16     6    25 1   
    17     7     8 1   
    18     7    26 1   
    19     8     9 2   
    20     8    36 1   
    21    10    11 ar  
    22    10    36 1   
    23    11    12 ar  
    24    11    29 1   
    25    12    13 ar  
    26    12    30 1   
    27    13    34 1   
    28    14    20 1   
    29    14    34 1   
    30    15    31 1   
    31    16    17 1   
    32    16    18 ar  
    33    18    19 ar  
    34    18    32 1   
    35    19    20 1   
    36    27    36 1   
    37    28    36 1   
    38    33    35 1   
@<TRIPOS>SUBSTRUCTURE
     1 ORJ         1 TEMP              0 ****  ****    0 ROOT
