@<TRIPOS>MOLECULE
ORK
   68    69     1     0     0
SMALL
bcc


@<TRIPOS>ATOM
      1 N           34.6770    41.2030    -4.2370 n7         1 ORK      -0.910300
      2 C           37.9320    42.5600    -1.4930 c3         1 ORK      -0.082600
      3 O           35.2690    42.6330    -6.3480 o          1 ORK      -0.823000
      4 C1          37.4580    41.1140    -1.5920 c3         1 ORK      -0.060700
      5 C10         30.8700    36.7350    -8.7530 ca         1 ORK      -0.159000
      6 C11         30.1720    37.9120    -8.5230 ca         1 ORK      -0.146000
      7 C12         30.6790    38.8610    -7.6440 ca         1 ORK      -0.119000
      8 C14         33.5420    40.9360   -11.4880 c3         1 ORK       0.212700
      9 C15         33.0600    39.5640   -11.8720 ca         1 ORK      -0.102300
     10 C16         33.9510    38.5940   -12.3150 ca         1 ORK      -0.095000
     11 C17         33.4980    37.3380   -12.6980 ca         1 ORK      -0.137000
     12 C18         32.1450    37.0360   -12.6280 ca         1 ORK      -0.134000
     13 C19         31.2480    37.9980   -12.1780 ca         1 ORK      -0.137000
     14 C2          37.3690    40.4860    -0.2040 c3         1 ORK      -0.082600
     15 C20         31.7030    39.2540   -11.8050 ca         1 ORK      -0.095000
     16 C21         37.0850    40.7760    -4.5740 c          1 ORK       0.673100
     17 C22         37.6560    38.6170    -5.6270 c3         1 ORK      -0.034300
     18 C23         38.7770    38.0910    -4.7280 c3         1 ORK      -0.079100
     19 C24         36.8260    37.4310    -6.1770 c          1 ORK       0.934600
     20 C3          36.1030    40.9860    -2.2900 c3         1 ORK      -0.078400
     21 C4          36.0150    41.4790    -3.7410 c3         1 ORK       0.165500
     22 C5          33.5580    40.5350    -6.7020 c3         1 ORK      -0.052500
     23 C6          32.4400    39.7050    -6.0570 c3         1 ORK      -0.029100
     24 C7          31.8860    38.6540    -6.9790 ca         1 ORK      -0.051300
     25 C8          32.5780    37.4680    -7.2200 ca         1 ORK      -0.119000
     26 C9          32.0740    36.5170    -8.0970 ca         1 ORK      -0.146000
     27 N1          33.1430    41.0470    -7.9910 ns         1 ORK      -0.519900
     28 N2          36.7830    39.5250    -4.9220 ns         1 ORK      -0.527900
     29 O2          34.6720    39.9560    -9.2790 o          1 ORK      -0.575000
     30 O3          33.1160    41.3150   -10.1830 os         1 ORK      -0.453900
     31 O4          38.1590    41.3160    -4.8230 o          1 ORK      -0.671100
     32 O5          37.4210    36.6700    -6.9570 o          1 ORK      -0.846300
     33 O6          35.6500    37.3300    -5.7650 o          1 ORK      -0.846300
     34 P           34.0980    41.9770    -5.6600 p5         1 ORK       1.195500
     35 H1          33.9920    41.1860    -3.4940 hn         1 ORK       0.365800
     36 H2          38.8740    42.6200    -0.9450 hc         1 ORK       0.021867
     37 H3          38.0960    43.0080    -2.4730 hc         1 ORK       0.021867
     38 H4          37.2020    43.1740    -0.9600 hc         1 ORK       0.021867
     39 H5          38.2030    40.5470    -2.1600 hc         1 ORK       0.070700
     40 H6          30.4800    35.9950    -9.4410 ha         1 ORK       0.097000
     41 H7          29.2330    38.0950    -9.0300 ha         1 ORK       0.109000
     42 H8          30.1250    39.7760    -7.4700 ha         1 ORK       0.156500
     43 H9          34.6270    41.0060   -11.5850 h1         1 ORK       0.049200
     44 H10         33.1030    41.6880   -12.1450 h1         1 ORK       0.049200
     45 H11         35.0100    38.8200   -12.3610 ha         1 ORK       0.135500
     46 H12         34.2030    36.5930   -13.0420 ha         1 ORK       0.117000
     47 H13         31.7900    36.0560   -12.9210 ha         1 ORK       0.110000
     48 H14         30.1920    37.7680   -12.1170 ha         1 ORK       0.117000
     49 H15         38.3300    40.5300     0.3110 hc         1 ORK       0.021867
     50 H16         36.6360    41.0090     0.4160 hc         1 ORK       0.021867
     51 H17         37.0680    39.4390    -0.2590 hc         1 ORK       0.021867
     52 H18         30.9950    39.9960   -11.4580 ha         1 ORK       0.135500
     53 H19         38.1080    39.1390    -6.4760 h1         1 ORK       0.058700
     54 H20         39.3800    38.9070    -4.3320 hc         1 ORK       0.014367
     55 H21         38.3670    37.5320    -3.8850 hc         1 ORK       0.014367
     56 H22         39.4370    37.4280    -5.2870 hc         1 ORK       0.014367
     57 H23         35.3590    41.5410    -1.7050 hc         1 ORK       0.032200
     58 H24         35.7890    39.9370    -2.2680 hc         1 ORK       0.032200
     59 H25         36.2580    42.5460    -3.7690 h1         1 ORK       0.049700
     60 H26         34.4210    39.8890    -6.8690 h1         1 ORK       0.120700
     61 H27         31.6340    40.3710    -5.7390 hc         1 ORK       0.050700
     62 H28         32.8430    39.2420    -5.1520 hc         1 ORK       0.050700
     63 H29         33.5220    37.2860    -6.7200 ha         1 ORK       0.156500
     64 H30         32.6260    35.6000    -8.2670 ha         1 ORK       0.109000
     65 H31         32.3580    41.6800    -8.0130 hn         1 ORK       0.313500
     66 H32         35.8470    39.1830    -4.7500 hn         1 ORK       0.347500
     67 O1          32.8510    42.7630    -5.3300 o          1 ORK      -0.823000
     68 C13         33.7230    40.7030    -9.1490 c          1 ORK       0.745100
@<TRIPOS>BOND
     1     1    21 1   
     2     1    34 1   
     3     1    35 1   
     4     2     4 1   
     5     2    36 1   
     6     2    37 1   
     7     2    38 1   
     8     3    34 1   
     9     4    14 1   
    10     4    20 1   
    11     4    39 1   
    12     5     6 ar  
    13     5    26 ar  
    14     5    40 1   
    15     6     7 ar  
    16     6    41 1   
    17     7    24 ar  
    18     7    42 1   
    19     8     9 1   
    20     8    30 1   
    21     8    43 1   
    22     8    44 1   
    23     9    10 ar  
    24     9    15 ar  
    25    10    11 ar  
    26    10    45 1   
    27    11    12 ar  
    28    11    46 1   
    29    12    13 ar  
    30    12    47 1   
    31    13    15 ar  
    32    13    48 1   
    33    14    49 1   
    34    14    50 1   
    35    14    51 1   
    36    15    52 1   
    37    16    21 1   
    38    16    28 1   
    39    16    31 2   
    40    17    18 1   
    41    17    19 1   
    42    17    28 1   
    43    17    53 1   
    44    18    54 1   
    45    18    55 1   
    46    18    56 1   
    47    19    32 1   
    48    19    33 1   
    49    20    21 1   
    50    20    57 1   
    51    20    58 1   
    52    21    59 1   
    53    22    23 1   
    54    22    27 1   
    55    22    34 1   
    56    22    60 1   
    57    23    24 1   
    58    23    61 1   
    59    23    62 1   
    60    24    25 ar  
    61    25    26 ar  
    62    25    63 1   
    63    26    64 1   
    64    27    65 1   
    65    27    68 1   
    66    28    66 1   
    67    29    68 2   
    68    30    68 1   
    69    34    67 1   
@<TRIPOS>SUBSTRUCTURE
     1 ORK         1 TEMP              0 ****  ****    0 ROOT
