@<TRIPOS>MOLECULE
ORK
   68    69     1     0     0
SMALL
No Charge or Current Charge


@<TRIPOS>ATOM
      1 N           35.3620    40.5970    -4.8430 n7         1 ORK      -0.965500
      2 C           36.4670    42.0220    -0.7170 c3         1 ORK      -0.082600
      3 O           36.3510    41.8550    -6.8290 o          1 ORK      -0.823000
      4 C1          36.8030    40.5980    -1.2200 c3         1 ORK      -0.060700
      5 C10         30.3060    37.0750    -8.6400 ca         1 ORK      -0.141000
      6 C11         29.9660    38.4360    -8.7140 ca         1 ORK      -0.128000
      7 C12         30.7160    39.3890    -8.0040 ca         1 ORK      -0.101000
      8 C14         33.5530    39.9540   -12.0290 c3         1 ORK       0.235900
      9 C15         32.2990    39.0840   -12.0980 ca         1 ORK      -0.102300
     10 C16         32.3960    37.6790   -12.0540 ca         1 ORK      -0.077000
     11 C17         31.2380    36.8850   -12.1260 ca         1 ORK      -0.119000
     12 C18         29.9760    37.4910   -12.2440 ca         1 ORK      -0.116000
     13 C19         29.8720    38.8910   -12.2870 ca         1 ORK      -0.119000
     14 C2          36.5860    39.5570    -0.0980 c3         1 ORK      -0.082600
     15 C20         31.0300    39.6850   -12.2130 ca         1 ORK      -0.077000
     16 C21         37.7650    41.1720    -4.1230 c          1 ORK       0.606100
     17 C22         39.6390    39.8210    -5.2020 c3         1 ORK      -0.034300
     18 C23         40.5130    39.4330    -3.9870 c3         1 ORK      -0.079100
     19 C24         39.7140    38.7410    -6.3280 c          1 ORK       0.724000
     20 C3          36.0060    40.2070    -2.4980 c3         1 ORK      -0.078400
     21 C4          36.2390    41.1020    -3.7460 c3         1 ORK       0.165500
     22 C5          33.9850    40.3550    -7.1410 c3         1 ORK      -0.210300
     23 C6          32.6360    40.0180    -6.4490 c3         1 ORK      -0.029100
     24 C7          31.8130    38.9870    -7.2150 ca         1 ORK      -0.051300
     25 C8          32.1500    37.6210    -7.1470 ca         1 ORK      -0.101000
     26 C9          31.3990    36.6680    -7.8580 ca         1 ORK      -0.128000
     27 N1          33.7690    40.7610    -8.5610 ns         1 ORK      -0.452900
     28 N2          38.2340    40.0650    -4.8000 ns         1 ORK      -0.460900
     29 O2          34.3120    38.7880    -9.6200 o          1 ORK      -0.526000
     30 O3          33.5840    40.6490   -10.7690 os         1 ORK      -0.477100
     31 O4          38.4850    42.1300    -3.8540 o          1 ORK      -0.671100
     32 O5          40.4330    38.9640    -7.2930 o          1 ORK      -0.741000
     33 O6          38.9870    37.7590    -6.2490 o          1 ORK      -0.741000
     34 P           35.0620    41.5240    -6.1650 p5         1 ORK       1.353300
     35 H1          34.4130    40.5900    -4.4790 hn         1 ORK       0.421000
     36 H2          37.0200    42.2460     0.2040 hc         1 ORK       0.021867
     37 H3          36.7420    42.7810    -1.4580 hc         1 ORK       0.021867
     38 H4          35.3960    42.1180    -0.5040 hc         1 ORK       0.021867
     39 H5          37.8740    40.5770    -1.4620 hc         1 ORK       0.070700
     40 H6          29.7280    36.3390    -9.1930 ha         1 ORK       0.079000
     41 H7          29.1230    38.7520    -9.3240 ha         1 ORK       0.091000
     42 H8          30.4500    40.4410    -8.0720 ha         1 ORK       0.138500
     43 H9          34.4560    39.3450   -12.1700 h1         1 ORK       0.049200
     44 H10         33.5180    40.6790   -12.8520 h1         1 ORK       0.049200
     45 H11         33.3690    37.2000   -11.9600 ha         1 ORK       0.117500
     46 H12         31.3190    35.8020   -12.0890 ha         1 ORK       0.099000
     47 H13         29.0800    36.8760   -12.2980 ha         1 ORK       0.092000
     48 H14         28.8960    39.3610   -12.3740 ha         1 ORK       0.099000
     49 H15         37.1890    39.8050     0.7840 hc         1 ORK       0.021867
     50 H16         35.5320    39.5240     0.2060 hc         1 ORK       0.021867
     51 H17         36.8790    38.5560    -0.4350 hc         1 ORK       0.021867
     52 H18         30.9420    40.7690   -12.2430 ha         1 ORK       0.117500
     53 H19         40.0330    40.7530    -5.6260 h1         1 ORK       0.058700
     54 H20         40.5050    40.2250    -3.2290 hc         1 ORK       0.014367
     55 H21         40.1470    38.5090    -3.5240 hc         1 ORK       0.014367
     56 H22         41.5510    39.2730    -4.3000 hc         1 ORK       0.014367
     57 H23         34.9360    40.2100    -2.2550 hc         1 ORK       0.032200
     58 H24         36.2590    39.1730    -2.7630 hc         1 ORK       0.032200
     59 H25         35.9360    42.1250    -3.4870 h1         1 ORK       0.049700
     60 H26         34.6080    39.4540    -7.1340 h1         1 ORK       0.120700
     61 H27         32.0590    40.9430    -6.3240 hc         1 ORK       0.050700
     62 H28         32.8260    39.6440    -5.4360 hc         1 ORK       0.050700
     63 H29         32.9990    37.2990    -6.5470 ha         1 ORK       0.138500
     64 H30         31.6670    35.6150    -7.8040 ha         1 ORK       0.091000
     65 H31         33.4570    41.7030    -8.7650 hn         1 ORK       0.313500
     66 H32         37.5330    39.3700    -5.0340 hn         1 ORK       0.347500
     67 O1          34.3040    42.7080    -5.6800 o          1 ORK      -0.823000
     68 C13         33.9060    39.9400    -9.6500 c          1 ORK       0.629100
@<TRIPOS>BOND
     1     1    21 1   
     2     1    34 1   
     3     1    35 1   
     4     2     4 1   
     5     2    36 1   
     6     2    37 1   
     7     2    38 1   
     8     3    34 1   
     9     4    14 1   
    10     4    20 1   
    11     4    39 1   
    12     5     6 ar  
    13     5    26 ar  
    14     5    40 1   
    15     6     7 ar  
    16     6    41 1   
    17     7    24 ar  
    18     7    42 1   
    19     8     9 1   
    20     8    30 1   
    21     8    43 1   
    22     8    44 1   
    23     9    10 ar  
    24     9    15 ar  
    25    10    11 ar  
    26    10    45 1   
    27    11    12 ar  
    28    11    46 1   
    29    12    13 ar  
    30    12    47 1   
    31    13    15 ar  
    32    13    48 1   
    33    14    49 1   
    34    14    50 1   
    35    14    51 1   
    36    15    52 1   
    37    16    21 1   
    38    16    28 1   
    39    16    31 2   
    40    17    18 1   
    41    17    19 1   
    42    17    28 1   
    43    17    53 1   
    44    18    54 1   
    45    18    55 1   
    46    18    56 1   
    47    19    32 1   
    48    19    33 1   
    49    20    21 1   
    50    20    57 1   
    51    20    58 1   
    52    21    59 1   
    53    22    23 1   
    54    22    27 1   
    55    22    34 1   
    56    22    60 1   
    57    23    24 1   
    58    23    61 1   
    59    23    62 1   
    60    24    25 ar  
    61    25    26 ar  
    62    25    63 1   
    63    26    64 1   
    64    27    65 1   
    65    27    68 1   
    66    28    66 1   
    67    29    68 2   
    68    30    68 1   
    69    34    67 1   
@<TRIPOS>SUBSTRUCTURE
     1 ORK         1 TEMP              0 ****  ****    0 ROOT
