@<TRIPOS>MOLECULE
ORM
   33    33     1     0     0
SMALL
No Charge or Current Charge


@<TRIPOS>ATOM
      1 CAR          4.7560    -1.1550    -0.6150 c3         1 ORM       0.014600
      2 CAP          3.6990    -0.0490    -0.7650 c          1 ORM       0.604100
      3 OAQ          3.9390     1.0230    -1.3130 o          1 ORM      -0.540100
      4 NAH          2.4630    -0.3870    -0.2260 ns         1 ORM      -0.153000
      5 CAC          1.2270     0.3170    -0.1370 ca         1 ORM      -0.034000
      6 CAD          0.1390    -0.3520     0.4550 ca         1 ORM      -0.069000
      7 CAB          1.0440     1.6350    -0.6060 ca         1 ORM      -0.078000
      8 CAA         -0.2070     2.2600    -0.4810 ca         1 ORM      -0.095000
      9 CAF         -1.2910     1.5910     0.1080 ca         1 ORM       0.166000
     10 ClA         -2.8290     2.4490     0.1900 cl         1 ORM      -0.180000
     11 CAE         -1.1260     0.2700     0.5830 ca         1 ORM      -0.257500
     12 SAI         -2.4810    -0.6390     1.3550 sy         1 ORM       1.173600
     13 OAJ         -2.0370    -1.9990     1.6730 o          1 ORM      -0.531000
     14 OAK         -3.1650     0.1910     2.3500 o          1 ORM      -0.531000
     15 NAL         -3.5590    -0.7700     0.0780 n7         1 ORM      -0.903300
     16 CAM         -3.5770    -1.9810    -0.7570 c3         1 ORM       0.235500
     17 CAO         -4.8530    -1.9350    -1.6170 c3         1 ORM      -0.107600
     18 CAN         -2.3120    -2.0750    -1.6390 c3         1 ORM      -0.107600
     19 H1           4.8900    -1.3690     0.4520 h1         1 ORM       0.083700
     20 H2           4.3910    -2.0590    -1.1170 h1         1 ORM       0.083700
     21 H4           2.4340    -1.3120     0.1850 hn         1 ORM       0.157000
     22 H5           0.2840    -1.3680     0.8200 ha         1 ORM       0.144000
     23 H6           1.8520     2.1950    -1.0670 ha         1 ORM       0.155000
     24 H7          -0.3400     3.2750    -0.8490 ha         1 ORM       0.136000
     25 H8          -3.2870     0.0210    -0.5000 hn         1 ORM       0.498000
     26 H9          -3.6410    -2.8840    -0.1310 h1         1 ORM       0.067700
     27 H10         -4.8490    -1.0640    -2.2830 hc         1 ORM       0.045533
     28 H11         -4.9340    -2.8380    -2.2330 hc         1 ORM       0.045533
     29 H12         -5.7440    -1.8800    -0.9800 hc         1 ORM       0.045533
     30 H13         -1.4140    -2.2410    -1.0340 hc         1 ORM       0.045533
     31 H14         -2.3960    -2.9200    -2.3330 hc         1 ORM       0.045533
     32 H15         -2.1710    -1.1630    -2.2310 hc         1 ORM       0.045533
     33 Cl1          6.3950    -0.7450    -1.3160 cl         1 ORM      -0.205000
@<TRIPOS>BOND
     1     1     2 1   
     2     1    19 1   
     3     1    20 1   
     4     1    33 1   
     5     2     3 2   
     6     2     4 1   
     7     4     5 1   
     8     4    21 1   
     9     5     6 ar  
    10     5     7 ar  
    11     6    11 ar  
    12     6    22 1   
    13     7     8 ar  
    14     7    23 1   
    15     8     9 ar  
    16     8    24 1   
    17     9    10 1   
    18     9    11 ar  
    19    11    12 1   
    20    12    13 2   
    21    12    14 2   
    22    12    15 1   
    23    15    16 1   
    24    15    25 1   
    25    16    17 1   
    26    16    18 1   
    27    16    26 1   
    28    17    27 1   
    29    17    28 1   
    30    17    29 1   
    31    18    30 1   
    32    18    31 1   
    33    18    32 1   
@<TRIPOS>SUBSTRUCTURE
     1 ORM         1 TEMP              0 ****  ****    0 ROOT
