@<TRIPOS>MOLECULE
ORM
   33    33     1     0     0
SMALL
bcc


@<TRIPOS>ATOM
      1 CAR          4.7920    -1.3500    -0.2130 c3         1 ORM      -0.062000
      2 CAP          3.7870    -0.2310    -0.4370 c          1 ORM       0.671100
      3 OAQ          4.0910     0.8610    -0.8600 o          1 ORM      -0.540100
      4 NAH          2.5240    -0.6210    -0.1230 ns         1 ORM      -0.479100
      5 CAC          1.3450     0.1190    -0.1910 ca         1 ORM       0.058600
      6 CAD          0.2220    -0.4350     0.4230 ca         1 ORM      -0.087000
      7 CAB          1.2230     1.3520    -0.8300 ca         1 ORM      -0.096000
      8 CAA          0.0030     2.0080    -0.8380 ca         1 ORM      -0.113000
      9 CAF         -1.1050     1.4630    -0.2140 ca         1 ORM       0.074400
     10 CLA         -2.5970     2.3270    -0.2760 cl         1 ORM      -0.088400
     11 CAE         -0.9930     0.2260     0.4140 ca         1 ORM      -0.257500
     12 SAI         -2.3700    -0.5380     1.2600 sy         1 ORM       1.315200
     13 OAJ         -1.9000    -1.8380     1.7080 o          1 ORM      -0.601800
     14 OAK         -2.8750     0.4190     2.2270 o          1 ORM      -0.601800
     15 NAL         -3.5540    -0.7930     0.1750 n7         1 ORM      -0.848100
     16 CAM         -3.3940    -1.7050    -0.9650 c3         1 ORM       0.235500
     17 CAO         -4.6600    -2.5390    -1.0990 c3         1 ORM      -0.107600
     18 CAN         -3.0740    -0.9470    -2.2460 c3         1 ORM      -0.107600
     19 H1           4.6560    -1.8070     0.7660 h1         1 ORM       0.083700
     20 H2           4.6520    -2.1220    -0.9710 h1         1 ORM       0.083700
     21 H4           2.4220    -1.5480     0.2650 hn         1 ORM       0.323500
     22 H5           0.3050    -1.3930     0.9200 ha         1 ORM       0.162000
     23 H6           2.0590     1.8120    -1.3290 ha         1 ORM       0.173000
     24 H7          -0.0800     2.9610    -1.3420 ha         1 ORM       0.154000
     25 H8          -4.1380     0.0180     0.0080 hn         1 ORM       0.442800
     26 H9          -2.5660    -2.3770    -0.7340 h1         1 ORM       0.067700
     27 H10         -5.5270    -1.9050    -1.2890 hc         1 ORM       0.045533
     28 H11         -4.5640    -3.2350    -1.9330 hc         1 ORM       0.045533
     29 H12         -4.8480    -3.1130    -0.1930 hc         1 ORM       0.045533
     30 H13         -2.1310    -0.4060    -2.1750 hc         1 ORM       0.045533
     31 H14         -2.9930    -1.6420    -3.0820 hc         1 ORM       0.045533
     32 H15         -3.8630    -0.2310    -2.4830 hc         1 ORM       0.045533
     33 CL1          6.4530    -0.7480    -0.3240 cl         1 ORM      -0.128400
@<TRIPOS>BOND
     1     1     2 1   
     2     1    19 1   
     3     1    20 1   
     4     1    33 1   
     5     2     3 2   
     6     2     4 1   
     7     4     5 1   
     8     4    21 1   
     9     5     6 ar  
    10     5     7 ar  
    11     6    11 ar  
    12     6    22 1   
    13     7     8 ar  
    14     7    23 1   
    15     8     9 ar  
    16     8    24 1   
    17     9    10 1   
    18     9    11 ar  
    19    11    12 1   
    20    12    13 2   
    21    12    14 2   
    22    12    15 1   
    23    15    16 1   
    24    15    25 1   
    25    16    17 1   
    26    16    18 1   
    27    16    26 1   
    28    17    27 1   
    29    17    28 1   
    30    17    29 1   
    31    18    30 1   
    32    18    31 1   
    33    18    32 1   
@<TRIPOS>SUBSTRUCTURE
     1 ORM         1 TEMP              0 ****  ****    0 ROOT
