@<TRIPOS>MOLECULE
ORN
   20    19     1     0     0
SMALL
No Charge or Current Charge


@<TRIPOS>ATOM
      1 N           60.2910   198.2830    50.5860 n8         1 ORN      -0.889800
      2 CA          59.0320   198.2820    49.7470 c3         1 ORN       0.012500
      3 CB          58.2310   196.9680    49.9660 c3         1 ORN      -0.038400
      4 CG          57.6360   196.7870    51.3850 c3         1 ORN      -0.075400
      5 CD          56.8540   195.4660    51.5360 c3         1 ORN       0.143800
      6 NE          56.2930   195.3170    52.8880 n8         1 ORN      -0.880800
      7 C           58.0830   199.5590    49.8370 c          1 ORN       0.903600
      8 O           58.0740   200.2220    50.8710 o          1 ORN      -0.840800
      9 OXT         57.4940   199.9240    48.8240 o          1 ORN      -0.840800
     10 H           60.8480   199.1110    50.3500 hn         1 ORN       0.324800
     11 H2          60.0260   198.4400    51.5640 hn         1 ORN       0.324800
     12 HA          59.3790   198.2560    48.7050 h1         1 ORN       0.033700
     13 HB2         57.4160   196.9300    49.2330 hc         1 ORN       0.021700
     14 HB3         58.8830   196.1140    49.7420 hc         1 ORN       0.021700
     15 HG2         58.4430   196.8100    52.1270 hc         1 ORN       0.055700
     16 HG3         56.9650   197.6240    51.6100 hc         1 ORN       0.055700
     17 HD2         56.0280   195.4380    50.8120 h1         1 ORN       0.015200
     18 HD3         57.5200   194.6140    51.3400 h1         1 ORN       0.015200
     19 HE1         55.8260   194.4070    52.9580 hn         1 ORN       0.319300
     20 HE2         57.0610   195.2640    53.5640 hn         1 ORN       0.319300
@<TRIPOS>BOND
     1     1     2 1   
     2     1    10 1   
     3     1    11 1   
     4     2     3 1   
     5     2     7 1   
     6     2    12 1   
     7     3     4 1   
     8     3    13 1   
     9     3    14 1   
    10     4     5 1   
    11     4    15 1   
    12     4    16 1   
    13     5     6 1   
    14     5    17 1   
    15     5    18 1   
    16     6    19 1   
    17     6    20 1   
    18     7     8 1   
    19     7     9 1   
@<TRIPOS>SUBSTRUCTURE
     1 ORN         1 TEMP              0 ****  ****    0 ROOT
