@<TRIPOS>MOLECULE
ORN
   20    19     1     0     0
SMALL
bcc


@<TRIPOS>ATOM
      1 N           60.2250   198.2690    50.6200 n8         1 ORN      -0.889800
      2 CA          59.0440   198.2640    49.7630 c3         1 ORN       0.012500
      3 CB          58.2490   196.9700    49.9670 c3         1 ORN      -0.038400
      4 CG          57.6490   196.8070    51.3590 c3         1 ORN      -0.075400
      5 CD          56.8910   195.4980    51.5120 c3         1 ORN       0.143800
      6 NE          56.3040   195.3820    52.8410 n8         1 ORN      -0.880800
      7 C           58.1010   199.4850    49.9190 c          1 ORN       0.903600
      8 O           58.2550   200.2040    50.9280 o          1 ORN      -0.840800
      9 OXT         57.2420   199.6250    49.0240 o          1 ORN      -0.840800
     10 H           60.8490   199.0000    50.3010 hn         1 ORN       0.324800
     11 H2          59.9360   198.5810    51.5410 hn         1 ORN       0.324800
     12 HA          59.4000   198.2520    48.7260 h1         1 ORN       0.033700
     13 HB2         57.4470   196.9280    49.2240 hc         1 ORN       0.021700
     14 HB3         58.9100   196.1210    49.7600 hc         1 ORN       0.021700
     15 HG2         58.4440   196.8480    52.1120 hc         1 ORN       0.055700
     16 HG3         56.9670   197.6320    51.5810 hc         1 ORN       0.055700
     17 HD2         56.0780   195.4700    50.7800 h1         1 ORN       0.015200
     18 HD3         57.5610   194.6650    51.2550 h1         1 ORN       0.015200
     19 HE1         55.7830   194.5170    52.9050 hn         1 ORN       0.319300
     20 HE2         57.0470   195.3000    53.5260 hn         1 ORN       0.319300
@<TRIPOS>BOND
     1     1     2 1   
     2     1    10 1   
     3     1    11 1   
     4     2     3 1   
     5     2     7 1   
     6     2    12 1   
     7     3     4 1   
     8     3    13 1   
     9     3    14 1   
    10     4     5 1   
    11     4    15 1   
    12     4    16 1   
    13     5     6 1   
    14     5    17 1   
    15     5    18 1   
    16     6    19 1   
    17     6    20 1   
    18     7     8 1   
    19     7     9 1   
@<TRIPOS>SUBSTRUCTURE
     1 ORN         1 TEMP              0 ****  ****    0 ROOT
