@<TRIPOS>MOLECULE
ORO
   14    14     1     0     0
SMALL
bcc


@<TRIPOS>ATOM
      1 N1           1.0960    -0.0050     0.0450 ns         1 ORO      -0.443100
      2 C2           1.2790     0.0160    -1.3070 c          1 ORO       0.813500
      3 O2           2.3730     0.0140    -1.8360 o          1 ORO      -0.687500
      4 N3           0.1060     0.0400    -2.0190 ns         1 ORO      -0.609500
      5 C4          -1.1870     0.0430    -1.5110 c          1 ORO       0.726700
      6 O4          -2.1410     0.0650    -2.2710 o          1 ORO      -0.667500
      7 C5          -1.2560     0.0200    -0.0710 cc         1 ORO      -0.357200
      8 C6          -0.1200    -0.0030     0.6530 cd         1 ORO       0.020400
      9 C7          -0.0800    -0.0300     2.1880 c          1 ORO       0.928800
     10 O71         -1.1760    -0.0330     2.7580 o          1 ORO      -0.794300
     11 O72          1.0630    -0.0440     2.6750 o          1 ORO      -0.794300
     12 HN1          1.9080    -0.0230     0.6500 hn         1 ORO       0.368500
     13 HN3          0.2010     0.0550    -3.0260 hn         1 ORO       0.314500
     14 H5          -2.2200     0.0210     0.4120 ha         1 ORO       0.180000
@<TRIPOS>BOND
     1     1     2 1   
     2     1     8 1   
     3     1    12 1   
     4     2     3 2   
     5     2     4 1   
     6     4     5 1   
     7     4    13 1   
     8     5     6 2   
     9     5     7 1   
    10     7     8 2   
    11     7    14 1   
    12     8     9 1   
    13     9    10 1   
    14     9    11 1   
@<TRIPOS>SUBSTRUCTURE
     1 ORO         1 TEMP              0 ****  ****    0 ROOT
