@<TRIPOS>MOLECULE
ORO
   14    14     1     0     0
SMALL
No Charge or Current Charge


@<TRIPOS>ATOM
      1 N1           1.1200    -0.0040     0.0170 ns         1 ORO      -0.489600
      2 C2           1.2670     0.0170    -1.3370 c          1 ORO       0.604000
      3 O2           2.3560     0.0160    -1.8770 o          1 ORO      -0.612000
      4 N3           0.1000     0.0400    -2.0310 ns         1 ORO      -0.475500
      5 C4          -1.1650     0.0430    -1.5320 c          1 ORO       0.584200
      6 O4          -2.1460     0.0640    -2.2530 o          1 ORO      -0.592000
      7 C5          -1.2240     0.0190    -0.0710 cc         1 ORO      -0.407200
      8 C6          -0.0830    -0.0050     0.7110 cd         1 ORO       0.020400
      9 C7          -0.1100    -0.0300     2.2280 c          1 ORO       0.718200
     10 O71         -1.1890    -0.0300     2.8090 o          1 ORO      -0.689000
     11 O72          0.9620    -0.0500     2.8210 o          1 ORO      -0.689000
     12 HN1          1.9960    -0.0210     0.5310 hn         1 ORO       0.482000
     13 HN3          0.1820     0.0560    -3.0340 hn         1 ORO       0.314500
     14 H5          -2.2200     0.0210     0.3580 ha         1 ORO       0.230000
@<TRIPOS>BOND
     1     1     2 1   
     2     1     8 1   
     3     1    12 1   
     4     2     3 2   
     5     2     4 1   
     6     4     5 1   
     7     4    13 1   
     8     5     6 2   
     9     5     7 1   
    10     7     8 2   
    11     7    14 1   
    12     8     9 1   
    13     9    10 1   
    14     9    11 1   
@<TRIPOS>SUBSTRUCTURE
     1 ORO         1 TEMP              0 ****  ****    0 ROOT
