@<TRIPOS>MOLECULE
ORQ
   25    24     1     0     0
SMALL
bcc


@<TRIPOS>ATOM
      1 N           22.4600    23.7640    40.7630 n8         1 ORQ      -0.889800
      2 CA          23.6780    23.6940    41.5690 c3         1 ORQ       0.015500
      3 CB          24.8270    24.2920    40.7560 c3         1 ORQ      -0.047400
      4 CG          26.1840    24.2340    41.4430 c3         1 ORQ      -0.094400
      5 CD          27.3280    24.7420    40.5720 c3         1 ORQ       0.104000
      6 NE          27.5870    23.9100    39.4160 ns         1 ORQ      -0.572900
      7 O1          27.5730    23.3390    37.2470 o          1 ORQ      -0.642100
      8 C           23.5730    24.4070    42.9380 c          1 ORQ       0.897600
      9 O           24.0320    23.8080    43.9320 o          1 ORQ      -0.840800
     10 C1          27.3190    24.1600    38.1200 c          1 ORQ       0.676100
     11 C2          26.7090    25.5010    37.7880 c3         1 ORQ      -0.178100
     12 OXT         23.0560    25.5450    42.9220 o          1 ORQ      -0.840800
     13 H           22.1620    24.7340    40.7510 hn         1 ORQ       0.326800
     14 H2          21.7170    23.2740    41.2490 hn         1 ORQ       0.326800
     15 HA          23.9010    22.6350    41.7390 h1         1 ORQ       0.039700
     16 HB2         24.5880    25.3360    40.5200 hc         1 ORQ       0.025700
     17 HB3         24.8730    23.7620    39.8000 hc         1 ORQ       0.025700
     18 HG2         26.4010    23.2100    41.7620 hc         1 ORQ       0.059700
     19 HG3         26.1760    24.8410    42.3520 hc         1 ORQ       0.059700
     20 HD2         28.2430    24.7900    41.1670 h1         1 ORQ       0.035200
     21 HD3         27.1240    25.7610    40.2450 h1         1 ORQ       0.035200
     22 HE          27.9840    23.0000    39.6050 hn         1 ORQ       0.304500
     23 H21         26.5090    25.5500    36.7210 hc         1 ORQ       0.057700
     24 H22         27.3820    26.3190    38.0500 hc         1 ORQ       0.057700
     25 H23         25.7750    25.6690    38.3250 hc         1 ORQ       0.057700
@<TRIPOS>BOND
     1     1     2 1   
     2     1    13 1   
     3     1    14 1   
     4     2     3 1   
     5     2     8 1   
     6     2    15 1   
     7     3     4 1   
     8     3    16 1   
     9     3    17 1   
    10     4     5 1   
    11     4    18 1   
    12     4    19 1   
    13     5     6 1   
    14     5    20 1   
    15     5    21 1   
    16     6    10 1   
    17     6    22 1   
    18     7    10 2   
    19     8     9 1   
    20     8    12 1   
    21    10    11 1   
    22    11    23 1   
    23    11    24 1   
    24    11    25 1   
@<TRIPOS>SUBSTRUCTURE
     1 ORQ         1 TEMP              0 ****  ****    0 ROOT
