@<TRIPOS>MOLECULE
ORQ
   25    24     1     0     0
SMALL
No Charge or Current Charge


@<TRIPOS>ATOM
      1 N           22.4260    23.6440    40.7430 n8         1 ORQ      -0.889800
      2 CA          23.6780    23.7210    41.5880 c3         1 ORQ       0.015500
      3 CB          24.8450    24.2880    40.7330 c3         1 ORQ      -0.047400
      4 CG          26.2280    24.2220    41.4280 c3         1 ORQ      -0.094400
      5 CD          27.4000    24.7580    40.5770 c3         1 ORQ       0.104000
      6 NE          27.6690    23.9280    39.3960 ns         1 ORQ      -0.572900
      7 O1          27.3370    23.2680    37.2750 o          1 ORQ      -0.642100
      8 C           23.5470    24.4730    42.9850 c          1 ORQ       0.897600
      9 O           23.7490    23.8390    44.0150 o          1 ORQ      -0.840800
     10 C1          27.2380    24.1560    38.1070 c          1 ORQ       0.676100
     11 C2          26.7150    25.5460    37.7420 c3         1 ORQ      -0.178100
     12 OXT         23.1230    25.6260    42.9990 o          1 ORQ      -0.840800
     13 H           22.0790    24.5970    40.5870 hn         1 ORQ       0.326800
     14 H2          21.6810    23.1940    41.2850 hn         1 ORQ       0.326800
     15 HA          23.9410    22.6820    41.8290 h1         1 ORQ       0.039700
     16 HB2         24.6260    25.3310    40.4720 hc         1 ORQ       0.025700
     17 HB3         24.8940    23.7280    39.7910 hc         1 ORQ       0.025700
     18 HG2         26.4430    23.1860    41.7170 hc         1 ORQ       0.059700
     19 HG3         26.1950    24.8060    42.3560 hc         1 ORQ       0.059700
     20 HD2         28.3080    24.7590    41.1940 h1         1 ORQ       0.035200
     21 HD3         27.2050    25.7980    40.2890 h1         1 ORQ       0.035200
     22 HE          28.0640    23.0080    39.5510 hn         1 ORQ       0.304500
     23 H21         26.4730    25.6340    36.6770 hc         1 ORQ       0.057700
     24 H22         27.4490    26.2990    38.0490 hc         1 ORQ       0.057700
     25 H23         25.8480    25.7860    38.3650 hc         1 ORQ       0.057700
@<TRIPOS>BOND
     1     1     2 1   
     2     1    13 1   
     3     1    14 1   
     4     2     3 1   
     5     2     8 1   
     6     2    15 1   
     7     3     4 1   
     8     3    16 1   
     9     3    17 1   
    10     4     5 1   
    11     4    18 1   
    12     4    19 1   
    13     5     6 1   
    14     5    20 1   
    15     5    21 1   
    16     6    10 1   
    17     6    22 1   
    18     7    10 2   
    19     8     9 1   
    20     8    12 1   
    21    10    11 1   
    22    11    23 1   
    23    11    24 1   
    24    11    25 1   
@<TRIPOS>SUBSTRUCTURE
     1 ORQ         1 TEMP              0 ****  ****    0 ROOT
