@<TRIPOS>MOLECULE
ORR
   37    39     1     0     0
SMALL
abcg2


@<TRIPOS>ATOM
      1 N1           6.7750     0.7970    17.7440 nb         1 ORR      -0.622000
      2 C4           6.4500    -0.9240    22.1550 c6         1 ORR       0.099000
      3 C5           5.6040     0.2130    22.7100 c6         1 ORR      -0.098400
      4 C6           4.8120     0.8760    21.5810 c6         1 ORR      -0.023100
      5 C7           5.5290     0.8750    20.2560 ca         1 ORR      -0.138300
      6 C10         10.7630    -0.6770    22.8570 ca         1 ORR      -0.063300
      7 C13         13.5340    -0.3220    23.1250 ca         1 ORR      -0.096000
      8 C15         11.6470    -1.5000    22.1600 ca         1 ORR      -0.084000
      9 C14         13.0130    -1.3100    22.3000 ca         1 ORR       0.127000
     10 C12         12.6490     0.4910    23.8220 ca         1 ORR      -0.100000
     11 C11         11.2750     0.3180    23.6880 ca         1 ORR      -0.094000
     12 C9           9.2800    -0.8610    22.7010 c3         1 ORR      -0.105100
     13 O            9.4480     0.5210    20.7410 o          1 ORR      -0.562100
     14 N2           7.4010    -0.3680    21.1810 n          1 ORR      -0.232400
     15 C            4.9200     1.4540    19.1270 ca         1 ORR       0.250000
     16 N            3.6510     2.0070    19.2010 nv         1 ORR      -1.075000
     17 C3           6.7740     0.2730    20.0740 ca         1 ORR      -0.052000
     18 C2           7.3540     0.2400    18.8040 ca         1 ORR       0.307900
     19 C1           5.5960     1.3960    17.9050 ca         1 ORR       0.260900
     20 H1           5.8250    -1.6540    21.6350 h1         1 ORR       0.059200
     21 H2           6.9820    -1.4470    22.9390 h1         1 ORR       0.059200
     22 H3           6.2710     0.9340    23.1870 hc         1 ORR       0.052200
     23 H4           4.9240    -0.1610    23.4760 hc         1 ORR       0.052200
     24 H5           4.5550     1.9020    21.8600 hc         1 ORR       0.051200
     25 H6           3.8580     0.3560    21.4420 hc         1 ORR       0.051200
     26 H7          14.6040    -0.1970    23.2220 ha         1 ORR       0.130000
     27 H8          11.2710    -2.2810    21.5120 ha         1 ORR       0.129000
     28 H9          13.0370     1.2640    24.4730 ha         1 ORR       0.119000
     29 H10         10.5940     0.9590    24.2340 ha         1 ORR       0.114000
     30 H11          8.7670    -0.4620    23.5780 hc         1 ORR       0.067200
     31 H12          9.0350    -1.9230    22.6480 hc         1 ORR       0.067200
     32 H13          3.3760     2.3890    20.0940 hn         1 ORR       0.450500
     33 H14          3.4020     2.6160    18.4360 hn         1 ORR       0.450500
     34 H15          8.3060    -0.2500    18.6530 h4         1 ORR       0.040100
     35 H16          5.1430     1.8430    17.0240 h4         1 ORR       0.018100
     36 C8           8.7290    -0.1670    21.4540 c          1 ORR       0.600100
     37 CL          14.1110    -2.3490    21.4090 cl         1 ORR      -0.214000
@<TRIPOS>BOND
     1     1    18 ar  
     2     1    19 ar  
     3     2     3 1   
     4     2    14 1   
     5     2    20 1   
     6     2    21 1   
     7     3     4 1   
     8     3    22 1   
     9     3    23 1   
    10     4     5 1   
    11     4    24 1   
    12     4    25 1   
    13     5    15 ar  
    14     5    17 ar  
    15     6     8 ar  
    16     6    11 ar  
    17     6    12 1   
    18     7     9 ar  
    19     7    10 ar  
    20     7    26 1   
    21     8     9 ar  
    22     8    27 1   
    23     9    37 1   
    24    10    11 ar  
    25    10    28 1   
    26    11    29 1   
    27    12    30 1   
    28    12    31 1   
    29    12    36 1   
    30    13    36 2   
    31    14    17 1   
    32    14    36 1   
    33    15    16 1   
    34    15    19 ar  
    35    16    32 1   
    36    16    33 1   
    37    17    18 ar  
    38    18    34 1   
    39    19    35 1   
@<TRIPOS>SUBSTRUCTURE
     1 ORR         1 TEMP              0 ****  ****    0 ROOT
