@<TRIPOS>MOLECULE
ORR
   37    39     1     0     0
SMALL
No Charge or Current Charge


@<TRIPOS>ATOM
      1 N1           7.8470     1.8420    18.6760 nb         1 ORR      -0.622000
      2 C4           6.4740    -0.5300    22.7940 c6         1 ORR       0.099000
      3 C5           5.0240    -0.0590    22.5920 c6         1 ORR      -0.098400
      4 C6           4.6740     0.0070    21.0940 c6         1 ORR      -0.023100
      5 C7           5.7820     0.6600    20.2460 ca         1 ORR      -0.138300
      6 C10         10.6050    -0.3560    23.0230 ca         1 ORR      -0.063300
      7 C13         12.9410    -1.1090    21.6330 ca         1 ORR      -0.096000
      8 C15         10.5500    -1.3500    22.0250 ca         1 ORR      -0.084000
      9 C14         11.7140    -1.7230    21.3340 ca         1 ORR       0.127000
     10 C12         13.0020    -0.1160    22.6270 ca         1 ORR      -0.100000
     11 C11         11.8370     0.2590    23.3190 ca         1 ORR      -0.094000
     12 C9           9.3340     0.0560    23.7580 c3         1 ORR      -0.105100
     13 O            8.8020     2.1420    22.6930 o          1 ORR      -0.562100
     14 N2           7.4200     0.3910    22.1160 n          1 ORR      -0.232400
     15 C            5.5210     1.1130    18.9290 ca         1 ORR       0.250000
     16 N            4.2550     0.9860    18.3740 nv         1 ORR      -1.075000
     17 C3           7.1090     0.7700    20.7480 ca         1 ORR      -0.052000
     18 C2           8.0860     1.3980    19.9300 ca         1 ORR       0.307900
     19 C1           6.5910     1.6960    18.1960 ca         1 ORR       0.260900
     20 H1           6.6030    -1.5440    22.3910 h1         1 ORR       0.059200
     21 H2           6.6710    -0.5650    23.8740 h1         1 ORR       0.059200
     22 H3           4.9000     0.9350    23.0440 hc         1 ORR       0.052200
     23 H4           4.3300    -0.7320    23.1130 hc         1 ORR       0.052200
     24 H5           3.7260     0.5520    20.9830 hc         1 ORR       0.051200
     25 H6           4.4940    -1.0100    20.7200 hc         1 ORR       0.051200
     26 H7          13.8400    -1.4000    21.0960 ha         1 ORR       0.130000
     27 H8           9.6070    -1.8320    21.7820 ha         1 ORR       0.129000
     28 H9          13.9510     0.3620    22.8600 ha         1 ORR       0.119000
     29 H10         11.8940     1.0320    24.0830 ha         1 ORR       0.114000
     30 H11          9.5940     0.6080    24.6690 hc         1 ORR       0.067200
     31 H12          8.7960    -0.8550    24.0360 hc         1 ORR       0.067200
     32 H13          3.5360     0.4550    18.8620 hn         1 ORR       0.450500
     33 H14          4.0960     1.2040    17.3900 hn         1 ORR       0.450500
     34 H15          9.1130     1.5200    20.2740 h4         1 ORR       0.040100
     35 H16          6.4290     2.0580    17.1810 h4         1 ORR       0.018100
     36 C8           8.4830     0.9690    22.8560 c          1 ORR       0.600100
     37 Cl          11.6340    -2.9610    20.0870 cl         1 ORR      -0.214000
@<TRIPOS>BOND
     1     1    18 ar  
     2     1    19 ar  
     3     2     3 1   
     4     2    14 1   
     5     2    20 1   
     6     2    21 1   
     7     3     4 1   
     8     3    22 1   
     9     3    23 1   
    10     4     5 1   
    11     4    24 1   
    12     4    25 1   
    13     5    15 ar  
    14     5    17 ar  
    15     6     8 ar  
    16     6    11 ar  
    17     6    12 1   
    18     7     9 ar  
    19     7    10 ar  
    20     7    26 1   
    21     8     9 ar  
    22     8    27 1   
    23     9    37 1   
    24    10    11 ar  
    25    10    28 1   
    26    11    29 1   
    27    12    30 1   
    28    12    31 1   
    29    12    36 1   
    30    13    36 2   
    31    14    17 1   
    32    14    36 1   
    33    15    16 1   
    34    15    19 ar  
    35    16    32 1   
    36    16    33 1   
    37    17    18 ar  
    38    18    34 1   
    39    19    35 1   
@<TRIPOS>SUBSTRUCTURE
     1 ORR         1 TEMP              0 ****  ****    0 ROOT
