@<TRIPOS>MOLECULE
ORT
   21    20     1     0     0
SMALL
bcc


@<TRIPOS>ATOM
      1 N1         -17.5780     2.0900    21.9200 ns         1 ORT      -0.473300
      2 C4         -15.3340     2.5420    21.2170 c3         1 ORT      -0.172400
      3 C5         -16.7160     3.0610    21.5690 c          1 ORT       0.698100
      4 C1         -13.0880     4.0000    22.7640 c          1 ORT       0.530900
      5 C2         -14.0630     3.0540    23.4240 c3         1 ORT       0.053500
      6 C3         -14.5210     2.0060    22.4010 c3         1 ORT      -0.054400
      7 N2         -18.8710     2.3780    22.3160 n8         1 ORT      -0.608800
      8 N4         -15.1580     3.6850    24.1230 n8         1 ORT      -0.886800
      9 O3         -17.0100     4.2450    21.5200 o          1 ORT      -0.567100
     10 H1         -17.2650     1.1290    21.9250 hn         1 ORT       0.294500
     11 H2         -15.4410     1.7330    20.4900 hc         1 ORT       0.065200
     12 H3         -14.7940     3.3440    20.7090 hc         1 ORT       0.065200
     13 H5         -13.4610     2.5030    24.1590 h1         1 ORT       0.068700
     14 H6         -15.0840     1.2380    22.9340 hc         1 ORT       0.048700
     15 H7         -13.6360     1.5080    22.0000 hc         1 ORT       0.048700
     16 H8         -19.5190     1.8840    21.7160 hn         1 ORT       0.341800
     17 H9         -19.0120     2.0430    23.2600 hn         1 ORT       0.341800
     18 H10        -14.8060     4.1730    24.9370 hn         1 ORT       0.363300
     19 H11        -15.5910     4.3930    23.5430 hn         1 ORT       0.363300
     20 H4         -12.2400     3.5010    22.2580 h4         1 ORT      -0.016800
     21 O1         -13.1840     5.2020    22.7700 o          1 ORT      -0.504100
@<TRIPOS>BOND
     1     1     3 1   
     2     1     7 1   
     3     1    10 1   
     4     2     3 1   
     5     2     6 1   
     6     2    11 1   
     7     2    12 1   
     8     3     9 2   
     9     4     5 1   
    10     4    20 1   
    11     4    21 2   
    12     5     6 1   
    13     5     8 1   
    14     5    13 1   
    15     6    14 1   
    16     6    15 1   
    17     7    16 1   
    18     7    17 1   
    19     8    18 1   
    20     8    19 1   
@<TRIPOS>SUBSTRUCTURE
     1 ORT         1 TEMP              0 ****  ****    0 ROOT
