@<TRIPOS>MOLECULE
ORT
   21    20     1     0     0
SMALL
No Charge or Current Charge


@<TRIPOS>ATOM
      1 N1         -17.7790     2.0730    21.7540 ns         1 ORT      -0.406300
      2 C4         -15.3530     2.4070    21.3860 c3         1 ORT      -0.172400
      3 C5         -16.7060     2.9640    21.8570 c          1 ORT       0.631100
      4 C1         -13.0280     4.1640    22.5910 c          1 ORT       0.530900
      5 C2         -13.8260     3.1150    23.4400 c3         1 ORT       0.053500
      6 C3         -14.4040     1.9800    22.5460 c3         1 ORT      -0.054400
      7 N2         -19.1650     2.3770    22.1070 n8         1 ORT      -0.719200
      8 N4         -14.8850     3.6690    24.3510 n8         1 ORT      -0.997200
      9 O3         -16.8430     4.1180    22.2460 o          1 ORT      -0.567100
     10 H1         -17.5520     1.1410    21.4060 hn         1 ORT       0.294500
     11 H2         -15.5320     1.5120    20.7790 hc         1 ORT       0.065200
     12 H3         -14.8540     3.1640    20.7710 hc         1 ORT       0.065200
     13 H5         -13.0680     2.6490    24.0860 h1         1 ORT       0.068700
     14 H6         -14.9210     1.2490    23.1810 hc         1 ORT       0.048700
     15 H7         -13.5570     1.4390    22.1040 hc         1 ORT       0.048700
     16 H8         -19.7950     2.2570    21.2990 hn         1 ORT       0.397000
     17 H9         -19.5130     1.7470    22.8460 hn         1 ORT       0.397000
     18 H10        -14.5010     4.4670    24.8730 hn         1 ORT       0.418500
     19 H11        -15.6180     4.1060    23.7700 hn         1 ORT       0.418500
     20 H4         -12.2190     3.7430    21.9540 h4         1 ORT      -0.016800
     21 O1         -13.2520     5.3720    22.6060 o          1 ORT      -0.504100
@<TRIPOS>BOND
     1     1     3 1   
     2     1     7 1   
     3     1    10 1   
     4     2     3 1   
     5     2     6 1   
     6     2    11 1   
     7     2    12 1   
     8     3     9 2   
     9     4     5 1   
    10     4    20 1   
    11     4    21 2   
    12     5     6 1   
    13     5     8 1   
    14     5    13 1   
    15     6    14 1   
    16     6    15 1   
    17     7    16 1   
    18     7    17 1   
    19     8    18 1   
    20     8    19 1   
@<TRIPOS>SUBSTRUCTURE
     1 ORT         1 TEMP              0 ****  ****    0 ROOT
