@<TRIPOS>MOLECULE
ORU
   53    58     1     0     0
SMALL
abcg2


@<TRIPOS>ATOM
      1 C4          30.0490     5.9860    -4.9330 cp         1 ORU      -0.014000
      2 C5          30.8420     6.1410    -6.0670 ca         1 ORU      -0.112000
      3 C6          31.8730     5.2420    -6.2820 ca         1 ORU      -0.055000
      4 C7          32.1230     4.2080    -5.3990 ca         1 ORU      -0.123600
      5 C8          33.2320     3.2030    -5.5480 c3         1 ORU       0.167600
      6 C10         34.7490     1.9180    -7.0920 cx         1 ORU      -0.132700
      7 C15         35.9300     3.5350    -3.1380 cc         1 ORU      -0.154000
      8 C21         38.4510     2.9990    -0.2500 cc         1 ORU       0.406300
      9 C24         27.6260     6.5030    -4.5930 ca         1 ORU       0.200000
     10 C26         26.5700     7.3800    -4.3720 ca         1 ORU       0.080000
     11 C28         26.8280     8.7280    -4.1730 ca         1 ORU      -0.061000
     12 C11         34.3000     0.4830    -7.1080 cx         1 ORU      -0.129400
     13 C12         34.8520     1.1190    -8.3600 cx         1 ORU      -0.129400
     14 C14         34.8620     2.8180    -3.6630 cd         1 ORU      -0.101000
     15 C16         35.9590     4.7200    -3.9130 cc         1 ORU       0.267900
     16 C18         36.8050     3.1470    -2.0510 cc         1 ORU      -0.102000
     17 C19         36.9110     1.9360    -1.4160 cd         1 ORU       0.248900
     18 C23         28.9470     6.9320    -4.6330 cp         1 ORU      -0.053000
     19 C29         28.1370     9.1860    -4.1880 ca         1 ORU      -0.109000
     20 C3          30.3100     4.9420    -4.0680 ca         1 ORU      -0.160000
     21 C30         29.1740     8.2950    -4.4140 ca         1 ORU       0.039800
     22 C32         31.1040     9.6860    -5.2070 cc         1 ORU       0.400400
     23 C9          33.7240     3.0180    -6.9850 c3         1 ORU      -0.053400
     24 N13         34.3420     3.5600    -4.6600 na         1 ORU       0.120800
     25 N17         35.0000     4.7260    -4.8300 nd         1 ORU      -0.530800
     26 N2          31.3300     4.0720    -4.2870 na         1 ORU       0.451300
     27 N20         37.8360     1.8620    -0.4060 nd         1 ORU      -0.628000
     28 N31         30.5120     8.7830    -4.4070 na         1 ORU      -0.021500
     29 N33         32.3560     9.8200    -4.8330 nd         1 ORU      -0.375000
     30 N34         32.5210     8.9770    -3.7810 nd         1 ORU      -0.028000
     31 N35         31.4320     8.3510    -3.5130 nc         1 ORU      -0.175800
     32 O1          31.5440     3.1240    -3.4350 o          1 ORU      -0.520000
     33 S22         37.9380     4.2470    -1.3290 ss         1 ORU      -0.056400
     34 CL27        24.9470     6.7760    -4.3510 cl         1 ORU      -0.144000
     35 H1          30.6550     6.9440    -6.7660 ha         1 ORU       0.131000
     36 H2          32.5020     5.3420    -7.1530 ha         1 ORU       0.146000
     37 H3          32.8620     2.2500    -5.1740 h1         1 ORU       0.102700
     38 H4          35.6840     2.1160    -6.5800 hc         1 ORU       0.091700
     39 H5          39.2250     3.1830     0.4800 h5         1 ORU       0.050100
     40 H6          26.0090     9.4100    -3.9950 ha         1 ORU       0.147000
     41 H7          33.2340     0.2950    -7.0690 hc         1 ORU       0.073200
     42 H8          34.9070    -0.2510    -6.5960 hc         1 ORU       0.073200
     43 H9          34.1540     1.3530    -9.1540 hc         1 ORU       0.073200
     44 H10         35.8350     0.8160    -8.6970 hc         1 ORU       0.073200
     45 H11         34.4430     1.8630    -3.3950 h4         1 ORU       0.167000
     46 H12         36.6410     5.5530    -3.8330 h4         1 ORU       0.043100
     47 H13         36.3240     1.0640    -1.6670 h4         1 ORU       0.039100
     48 H14         28.3540    10.2300    -4.0090 ha         1 ORU       0.143000
     49 H15         29.7510     4.7570    -3.1650 h4         1 ORU       0.179000
     50 H17         34.1440     3.9540    -7.3590 hc         1 ORU       0.060700
     51 H18         32.8580     2.7780    -7.6060 hc         1 ORU       0.060700
     52 F25         27.3610     5.2060    -4.8070 f          1 ORU      -0.145000
     53 H16         30.6070    10.1910    -6.0180 h5         1 ORU       0.077100
@<TRIPOS>BOND
     1     1     2 ar  
     2     1    18 1   
     3     1    20 ar  
     4     2     3 ar  
     5     2    35 1   
     6     3     4 ar  
     7     3    36 1   
     8     4     5 1   
     9     4    26 2   
    10     5    23 1   
    11     5    24 1   
    12     5    37 1   
    13     6    12 1   
    14     6    13 1   
    15     6    23 1   
    16     6    38 1   
    17     7    14 2   
    18     7    15 1   
    19     7    16 1   
    20     8    27 2   
    21     8    33 1   
    22     8    39 1   
    23     9    10 ar  
    24     9    18 ar  
    25     9    52 1   
    26    10    11 ar  
    27    10    34 1   
    28    11    19 ar  
    29    11    40 1   
    30    12    13 1   
    31    12    41 1   
    32    12    42 1   
    33    13    43 1   
    34    13    44 1   
    35    14    24 1   
    36    14    45 1   
    37    15    25 2   
    38    15    46 1   
    39    16    17 2   
    40    16    33 1   
    41    17    27 1   
    42    17    47 1   
    43    18    21 ar  
    44    19    21 ar  
    45    19    48 1   
    46    20    26 1   
    47    20    49 1   
    48    21    28 1   
    49    22    28 1   
    50    22    29 2   
    51    22    53 1   
    52    23    50 1   
    53    23    51 1   
    54    24    25 1   
    55    26    32 1   
    56    28    31 1   
    57    29    30 1   
    58    30    31 2   
@<TRIPOS>SUBSTRUCTURE
     1 ORU         1 TEMP              0 ****  ****    0 ROOT
