@<TRIPOS>MOLECULE
ORU
   53    58     1     0     0
SMALL
No Charge or Current Charge


@<TRIPOS>ATOM
      1 C4          30.0660     6.0080    -4.9900 cp         1 ORU      -0.014000
      2 C5          31.1090     6.2900    -5.8980 ca         1 ORU      -0.112000
      3 C6          32.1590     5.3860    -6.0760 ca         1 ORU      -0.055000
      4 C7          32.1730     4.1890    -5.3370 ca         1 ORU      -0.123600
      5 C8          33.3170     3.1750    -5.5110 c3         1 ORU       0.167600
      6 C10         34.5430     1.6410    -7.1760 cx         1 ORU      -0.132700
      7 C15         36.1640     3.7250    -3.3400 cc         1 ORU      -0.154000
      8 C21         38.7420     3.4330    -0.5250 cc         1 ORU       0.406300
      9 C24         27.6390     6.6560    -5.2450 ca         1 ORU       0.200000
     10 C26         26.5700     7.5650    -5.0940 ca         1 ORU       0.080000
     11 C28         26.7850     8.8210    -4.5000 ca         1 ORU      -0.061000
     12 C11         34.0640     0.2180    -7.0200 cx         1 ORU      -0.129400
     13 C12         34.4540     0.7400    -8.3850 cx         1 ORU      -0.129400
     14 C14         35.0570     2.9900    -3.6350 cd         1 ORU      -0.101000
     15 C16         36.2620     4.7320    -4.3110 cc         1 ORU       0.267900
     16 C18         37.0550     3.5010    -2.2360 cc         1 ORU      -0.102000
     17 C19         36.8930     2.4860    -1.3170 cd         1 ORU       0.248900
     18 C23         28.9480     6.9840    -4.8090 cp         1 ORU      -0.053000
     19 C29         28.0680     9.1730    -4.0490 ca         1 ORU      -0.109000
     20 C3          30.0650     4.8010    -4.2440 ca         1 ORU      -0.160000
     21 C30         29.1250     8.2610    -4.2020 ca         1 ORU       0.039800
     22 C32         31.2790     9.4160    -4.3260 cc         1 ORU       0.400400
     23 C9          33.5850     2.8190    -6.9990 c3         1 ORU      -0.053400
     24 N13         34.5380     3.5980    -4.7860 na         1 ORU       0.120800
     25 N17         35.2960     4.6940    -5.2060 nd         1 ORU      -0.530800
     26 N2          31.1580     3.9420    -4.3970 na         1 ORU       0.451300
     27 N20         37.8690     2.4480    -0.3290 nd         1 ORU      -0.628000
     28 N31         30.4200     8.5250    -3.7550 na         1 ORU      -0.021500
     29 N33         32.3430     9.4280    -3.5430 nd         1 ORU      -0.375000
     30 N34         32.0810     8.5530    -2.5010 nd         1 ORU      -0.028000
     31 N35         30.8940     8.0090    -2.6020 nc         1 ORU      -0.175800
     32 O1          31.2330     2.9610    -3.6440 o          1 ORU      -0.520000
     33 S22         38.4570     4.4710    -1.9010 ss         1 ORU      -0.056400
     34 Cl27        24.9500     7.1440    -5.6490 cl         1 ORU      -0.144000
     35 H1          31.0950     7.2140    -6.4710 ha         1 ORU       0.131000
     36 H2          32.9550     5.6210    -6.7800 ha         1 ORU       0.146000
     37 H3          33.0090     2.2290    -5.0500 h1         1 ORU       0.102700
     38 H4          35.5460     1.8610    -6.8120 hc         1 ORU       0.091700
     39 H5          39.6000     3.6250     0.1060 h5         1 ORU       0.050100
     40 H6          25.9570     9.5170    -4.3860 ha         1 ORU       0.147000
     41 H7          33.0070     0.0490    -6.8270 hc         1 ORU       0.073200
     42 H8          34.7320    -0.4920    -6.5380 hc         1 ORU       0.073200
     43 H9          33.6590     0.9210    -9.1040 hc         1 ORU       0.073200
     44 H10         35.3850     0.3810    -8.8180 hc         1 ORU       0.073200
     45 H11         34.6050     2.1300    -3.1560 h4         1 ORU       0.167000
     46 H12         37.0190     5.5020    -4.3900 h4         1 ORU       0.043100
     47 H13         36.0980     1.7500    -1.3100 h4         1 ORU       0.039100
     48 H14         28.2370    10.1390    -3.5770 ha         1 ORU       0.143000
     49 H15         29.2900     4.5360    -3.5280 h4         1 ORU       0.179000
     50 H17         33.9880     3.6900    -7.5280 hc         1 ORU       0.060700
     51 H18         32.6240     2.5870    -7.4760 hc         1 ORU       0.060700
     52 F25         27.4080     5.4560    -5.8300 f          1 ORU      -0.145000
     53 H16         31.0900     9.9730    -5.2350 h5         1 ORU       0.077100
@<TRIPOS>BOND
     1     1     2 ar  
     2     1    18 1   
     3     1    20 ar  
     4     2     3 ar  
     5     2    35 1   
     6     3     4 ar  
     7     3    36 1   
     8     4     5 1   
     9     4    26 2   
    10     5    23 1   
    11     5    24 1   
    12     5    37 1   
    13     6    12 1   
    14     6    13 1   
    15     6    23 1   
    16     6    38 1   
    17     7    14 2   
    18     7    15 1   
    19     7    16 1   
    20     8    27 2   
    21     8    33 1   
    22     8    39 1   
    23     9    10 ar  
    24     9    18 ar  
    25     9    52 1   
    26    10    11 ar  
    27    10    34 1   
    28    11    19 ar  
    29    11    40 1   
    30    12    13 1   
    31    12    41 1   
    32    12    42 1   
    33    13    43 1   
    34    13    44 1   
    35    14    24 1   
    36    14    45 1   
    37    15    25 2   
    38    15    46 1   
    39    16    17 2   
    40    16    33 1   
    41    17    27 1   
    42    17    47 1   
    43    18    21 ar  
    44    19    21 ar  
    45    19    48 1   
    46    20    26 1   
    47    20    49 1   
    48    21    28 1   
    49    22    28 1   
    50    22    29 2   
    51    22    53 1   
    52    23    50 1   
    53    23    51 1   
    54    24    25 1   
    55    26    32 1   
    56    28    31 1   
    57    29    30 1   
    58    30    31 2   
@<TRIPOS>SUBSTRUCTURE
     1 ORU         1 TEMP              0 ****  ****    0 ROOT
