@<TRIPOS>MOLECULE
ORV
   80    83     1     0     0
SMALL
No Charge or Current Charge


@<TRIPOS>ATOM
      1 C13         22.7230    -4.4870    16.0660 ca         1 ORV      -0.082300
      2 C15         22.5680    -6.9170    16.2420 ca         1 ORV      -0.111000
      3 C17         22.9640    -5.5800    18.2350 ca         1 ORV      -0.111000
      4 C22         23.5940     1.5270    19.0280 c5         1 ORV       0.161300
      5 C24         18.1640     2.7690    18.2560 ca         1 ORV      -0.102000
      6 C26         17.9100     2.2820    20.6280 ca         1 ORV      -0.113000
      7 C28         18.1710     0.4640    19.0300 ca         1 ORV      -0.102000
      8 C02         19.7820     0.1600    16.3180 c3         1 ORV       0.120700
      9 C04         18.4460     0.9090    16.5360 c3         1 ORV      -0.045100
     10 C05         21.2580    -1.1250    14.5840 c3         1 ORV       0.162300
     11 C06         21.3240    -2.4580    15.3960 c3         1 ORV       0.111700
     12 C09         18.2140    -4.8190    15.3970 c3         1 ORV       0.050700
     13 C11         22.6650    -3.2130    15.2280 c3         1 ORV      -0.038100
     14 C14         22.5400    -5.7470    15.4630 ca         1 ORV      -0.103500
     15 C16         22.7800    -6.8340    17.6280 ca         1 ORV      -0.112000
     16 C18         22.9340    -4.4100    17.4560 ca         1 ORV      -0.103500
     17 C23         18.2560     1.3920    17.9730 ca         1 ORV      -0.086300
     18 C25         17.9890     3.2120    19.5790 ca         1 ORV      -0.113000
     19 C27         18.0010     0.9080    20.3530 ca         1 ORV      -0.113000
     20 C31         18.3750    -6.2570    15.9320 c3         1 ORV      -0.095100
     21 C35         24.7660     2.5050    18.7460 c5         1 ORV       0.152600
     22 C37         23.7020     3.4780    20.5510 c5         1 ORV       0.370300
     23 C38         23.0750     2.0480    20.4310 c5         1 ORV      -0.147700
     24 C40         21.4720     3.8100    20.0260 c5         1 ORV       0.151600
     25 C41         21.5290     2.3360    20.4860 c5         1 ORV      -0.097400
     26 N01         20.9070     0.9870    16.7610 ns         1 ORV      -0.499900
     27 N07         20.1930    -3.3380    15.0720 ns         1 ORV      -0.487900
     28 N29         18.2090    -4.8250    13.9160 ns         1 ORV      -0.495900
     29 O10         21.3190    -1.4070    13.1770 oh         1 ORV      -0.661000
     30 O20         21.8480    -0.4480    18.2850 o          1 ORV      -0.543000
     31 O21         22.6230     1.7070    17.9570 os         1 ORV      -0.454100
     32 O32         17.7140    -4.2400    11.8340 os         1 ORV      -0.451100
     33 O33         16.8860    -2.9820    13.5730 o          1 ORV      -0.558000
     34 O36         24.3050     3.7590    19.2770 os         1 ORV      -0.459000
     35 O39         22.5940     4.3810    20.7220 os         1 ORV      -0.440000
     36 H151        22.4240    -7.8870    15.7710 ha         1 ORV       0.109000
     37 H171        23.1250    -5.5140    19.3090 ha         1 ORV       0.109000
     38 H221        23.9600     0.4900    19.0560 h1         1 ORV       0.084700
     39 H241        18.2270     3.4990    17.4520 ha         1 ORV       0.119500
     40 H261        17.7780     2.6250    21.6520 ha         1 ORV       0.112000
     41 H281        18.2370    -0.6030    18.8290 ha         1 ORV       0.119500
     42 H021        19.7390    -0.7390    16.9480 h1         1 ORV       0.107700
     43 H032        19.9910     0.5980    14.2110 hc         1 ORV       0.051700
     44 H031        19.0960    -0.8750    14.5410 hc         1 ORV       0.051700
     45 H041        18.3950     1.7550    15.8400 hc         1 ORV       0.052700
     46 H042        17.6180     0.2430    16.2640 hc         1 ORV       0.052700
     47 H051        22.1260    -0.5150    14.8710 h1         1 ORV       0.041700
     48 H061        21.2610    -2.1940    16.4580 h1         1 ORV       0.101700
     49 H091        17.2470    -4.4300    15.7420 h1         1 ORV       0.081700
     50 H111        23.4870    -2.5450    15.5130 hc         1 ORV       0.058700
     51 H112        22.8200    -3.4500    14.1690 hc         1 ORV       0.058700
     52 H141        22.3690    -5.8220    14.3910 ha         1 ORV       0.118000
     53 H161        22.8010    -7.7390    18.2310 ha         1 ORV       0.109000
     54 H181        23.0690    -3.4420    17.9350 ha         1 ORV       0.118000
     55 H251        17.9170     4.2770    19.7900 ha         1 ORV       0.113500
     56 H271        17.9390     0.1860    21.1650 ha         1 ORV       0.113500
     57 H313        18.3180    -6.2690    17.0270 hc         1 ORV       0.051700
     58 H312        17.5810    -6.9060    15.5430 hc         1 ORV       0.051700
     59 H311        19.3440    -6.6770    15.6360 hc         1 ORV       0.051700
     60 H343        17.3320    -3.7460     9.8380 h1         1 ORV       0.048367
     61 H342        16.0100    -3.3760    10.9660 h1         1 ORV       0.048367
     62 H341        17.4720    -2.3580    10.9390 h1         1 ORV       0.048367
     63 H352        25.6790     2.2010    19.2760 h1         1 ORV       0.060700
     64 H371        24.4340     3.5620    21.3660 h2         1 ORV       0.079700
     65 H381        23.4030     1.3950    21.2470 hc         1 ORV       0.076700
     66 H401        20.5440     4.3170    20.3210 h1         1 ORV       0.054200
     67 H402        21.6120     3.9200    18.9420 h1         1 ORV       0.054200
     68 H412        21.1610     2.2560    21.5150 hc         1 ORV       0.066200
     69 H411        20.9010     1.6690    19.8920 hc         1 ORV       0.066200
     70 H011        20.9920     1.9300    16.4060 hn         1 ORV       0.323500
     71 H071        20.0490    -3.5850    14.1010 hn         1 ORV       0.339500
     72 H291        18.6770    -5.5720    13.4170 hn         1 ORV       0.337500
     73 H101        21.3660    -0.5450    12.7110 ho         1 ORV       0.443000
     74 C08         19.3020    -3.8680    15.9810 c          1 ORV       0.575100
     75 C03         19.9730    -0.2930    14.8500 c3         1 ORV      -0.121400
     76 C19         21.8070     0.6360    17.7250 c          1 ORV       0.640100
     77 C30         17.5220    -3.9310    13.1450 c          1 ORV       0.642100
     78 O12         19.3500    -3.5880    17.1720 o          1 ORV      -0.609100
     79 H351        24.9930     2.6050    17.6760 h1         1 ORV       0.060700
     80 C34         17.1020    -3.3880    10.8490 c3         1 ORV       0.169900
@<TRIPOS>BOND
     1     1    13 1   
     2     1    14 ar  
     3     1    16 ar  
     4     2    14 ar  
     5     2    15 ar  
     6     2    36 1   
     7     3    15 ar  
     8     3    16 ar  
     9     3    37 1   
    10     4    21 1   
    11     4    23 1   
    12     4    31 1   
    13     4    38 1   
    14     5    17 ar  
    15     5    18 ar  
    16     5    39 1   
    17     6    18 ar  
    18     6    19 ar  
    19     6    40 1   
    20     7    17 ar  
    21     7    19 ar  
    22     7    41 1   
    23     8     9 1   
    24     8    26 1   
    25     8    42 1   
    26     8    75 1   
    27     9    17 1   
    28     9    45 1   
    29     9    46 1   
    30    10    11 1   
    31    10    29 1   
    32    10    47 1   
    33    10    75 1   
    34    11    13 1   
    35    11    27 1   
    36    11    48 1   
    37    12    20 1   
    38    12    28 1   
    39    12    49 1   
    40    12    74 1   
    41    13    50 1   
    42    13    51 1   
    43    14    52 1   
    44    15    53 1   
    45    16    54 1   
    46    18    55 1   
    47    19    56 1   
    48    20    57 1   
    49    20    58 1   
    50    20    59 1   
    51    21    34 1   
    52    21    63 1   
    53    21    79 1   
    54    22    23 1   
    55    22    34 1   
    56    22    35 1   
    57    22    64 1   
    58    23    25 1   
    59    23    65 1   
    60    24    25 1   
    61    24    35 1   
    62    24    66 1   
    63    24    67 1   
    64    25    68 1   
    65    25    69 1   
    66    26    70 1   
    67    26    76 1   
    68    27    71 1   
    69    27    74 1   
    70    28    72 1   
    71    28    77 1   
    72    29    73 1   
    73    30    76 2   
    74    31    76 1   
    75    32    77 1   
    76    32    80 1   
    77    33    77 2   
    78    43    75 1   
    79    44    75 1   
    80    60    80 1   
    81    61    80 1   
    82    62    80 1   
    83    74    78 2   
@<TRIPOS>SUBSTRUCTURE
     1 ORV         1 TEMP              0 ****  ****    0 ROOT
