@<TRIPOS>MOLECULE
ORV
   80    83     1     0     0
SMALL
bcc


@<TRIPOS>ATOM
      1 C13         22.2760    -3.7600    14.9620 ca         1 ORV      -0.082300
      2 C15         22.2470    -6.1790    14.9530 ca         1 ORV      -0.129000
      3 C17         22.9420    -5.0050    16.9270 ca         1 ORV      -0.129000
      4 C22         23.6970     1.4950    18.7940 c5         1 ORV       0.138100
      5 C24         18.3470     2.4610    19.2620 ca         1 ORV      -0.120000
      6 C26         18.4170     1.3600    21.4010 ca         1 ORV      -0.131000
      7 C28         18.3330     0.0690    19.3700 ca         1 ORV      -0.120000
      8 C02         19.5500     0.5550    16.5220 c3         1 ORV       0.120700
      9 C04         18.2690     1.1570    17.1050 c3         1 ORV      -0.045100
     10 C05         20.6420    -0.3090    14.3660 c3         1 ORV       0.139100
     11 C06         20.7780    -1.7510    14.8570 c3         1 ORV       0.111700
     12 C09         17.6280    -3.8870    14.9510 c3         1 ORV       0.050700
     13 C11         22.0200    -2.4440    14.2840 c3         1 ORV      -0.038100
     14 C14         22.0390    -4.9650    14.3090 ca         1 ORV      -0.121500
     15 C16         22.7000    -6.2030    16.2640 ca         1 ORV      -0.130000
     16 C18         22.7290    -3.7970    16.2810 ca         1 ORV      -0.121500
     17 C23         18.3120     1.2350    18.6050 ca         1 ORV      -0.086300
     18 C25         18.3940     2.5260    20.6500 ca         1 ORV      -0.131000
     19 C27         18.3870     0.1290    20.7550 ca         1 ORV      -0.131000
     20 C31         16.4270    -3.8820    15.8780 c3         1 ORV      -0.095100
     21 C35         24.8050     2.4760    18.4630 c5         1 ORV       0.129400
     22 C37         24.0490     3.2050    20.4870 c5         1 ORV       0.323900
     23 C38         23.4560     1.7880    20.2830 c5         1 ORV      -0.147700
     24 C40         21.7750     3.4460    20.6110 c5         1 ORV       0.128400
     25 C41         22.0130     1.9510    20.7610 c5         1 ORV      -0.097400
     26 N01         20.7010     1.3340    16.9270 ns         1 ORV      -0.566900
     27 N07         19.5870    -2.5210    14.5760 ns         1 ORV      -0.554900
     28 N29         18.0930    -5.2440    14.7450 ns         1 ORV      -0.562900
     29 O10         20.5080    -0.3570    12.9600 oh         1 ORV      -0.598800
     30 O20         21.8470    -0.3140    18.0040 o          1 ORV      -0.592000
     31 O21         22.5730     1.8220    17.9830 os         1 ORV      -0.430900
     32 O32         19.0500    -6.9270    13.6840 os         1 ORV      -0.427900
     33 O33         18.8260    -4.9600    12.6110 o          1 ORV      -0.607000
     34 O36         24.5220     3.6280    19.2280 os         1 ORV      -0.412600
     35 O39         23.0320     4.0380    20.9270 os         1 ORV      -0.393600
     36 H151        22.0630    -7.1080    14.4280 ha         1 ORV       0.127000
     37 H171        23.2970    -5.0140    17.9500 ha         1 ORV       0.127000
     38 H221        24.0030     0.4650    18.6180 h1         1 ORV       0.084700
     39 H241        18.3290     3.3760    18.6820 ha         1 ORV       0.137500
     40 H261        18.4570     1.4080    22.4810 ha         1 ORV       0.130000
     41 H281        18.3030    -0.8970    18.8780 ha         1 ORV       0.137500
     42 H021        19.6690    -0.4360    16.9540 h1         1 ORV       0.107700
     43 H032        19.4030     1.4340    14.5680 hc         1 ORV       0.051700
     44 H031        18.5340    -0.0770    14.7380 hc         1 ORV       0.051700
     45 H041        18.0960     2.1510    16.6810 hc         1 ORV       0.052700
     46 H042        17.4280     0.5360    16.7830 hc         1 ORV       0.052700
     47 H051        21.5710     0.2070    14.6460 h1         1 ORV       0.041700
     48 H061        20.8940    -1.7230    15.9400 h1         1 ORV       0.101700
     49 H091        17.3280    -3.4880    13.9810 h1         1 ORV       0.081700
     50 H111        22.8760    -1.7770    14.4270 hc         1 ORV       0.058700
     51 H112        21.9130    -2.5890    13.2080 hc         1 ORV       0.058700
     52 H141        21.6940    -4.9520    13.2820 ha         1 ORV       0.136000
     53 H161        22.8670    -7.1470    16.7660 ha         1 ORV       0.127000
     54 H181        22.9160    -2.8670    16.8080 ha         1 ORV       0.136000
     55 H251        18.4140     3.4900    21.1420 ha         1 ORV       0.131500
     56 H271        18.4030    -0.7850    21.3340 ha         1 ORV       0.131500
     57 H313        16.0670    -2.8660    16.0340 hc         1 ORV       0.051700
     58 H312        15.6160    -4.4640    15.4410 hc         1 ORV       0.051700
     59 H311        16.6700    -4.3040    16.8520 hc         1 ORV       0.051700
     60 H343        19.9330    -8.5110    12.8130 h1         1 ORV       0.048367
     61 H342        18.9900    -7.5220    11.6830 h1         1 ORV       0.048367
     62 H341        20.5730    -6.9570    12.2520 h1         1 ORV       0.048367
     63 H352        25.7700     2.0350    18.7440 h1         1 ORV       0.060700
     64 H371        24.8610     3.2440    21.2210 h2         1 ORV       0.079700
     65 H381        23.9950     1.0480    20.8750 hc         1 ORV       0.076700
     66 H401        21.0310     3.8390    21.3030 h1         1 ORV       0.054200
     67 H402        21.4610     3.7020    19.5930 h1         1 ORV       0.054200
     68 H412        21.9480     1.6680    21.8120 hc         1 ORV       0.066200
     69 H411        21.2770     1.3520    20.2270 hc         1 ORV       0.066200
     70 H011        20.6960     2.3230    16.7250 hn         1 ORV       0.323500
     71 H071        19.3900    -2.7370    13.6100 hn         1 ORV       0.339500
     72 H291        18.0860    -5.8700    15.5360 hn         1 ORV       0.337500
     73 H101        20.4860     0.5440    12.6230 ho         1 ORV       0.404000
     74 C08         18.7760    -3.0370    15.5120 c          1 ORV       0.642100
     75 C03         19.4660     0.4290    15.0020 c3         1 ORV      -0.121400
     76 C19         21.7090     0.8450    17.6680 c          1 ORV       0.756100
     77 C30         18.6740    -5.6500    13.6010 c          1 ORV       0.758100
     78 O12         18.9250    -2.8810    16.7140 o          1 ORV      -0.609100
     79 H351        24.8500     2.7440    17.4070 h1         1 ORV       0.060700
     80 C34         19.6690    -7.4950    12.5350 c3         1 ORV       0.146700
@<TRIPOS>BOND
     1     1    13 1   
     2     1    14 ar  
     3     1    16 ar  
     4     2    14 ar  
     5     2    15 ar  
     6     2    36 1   
     7     3    15 ar  
     8     3    16 ar  
     9     3    37 1   
    10     4    21 1   
    11     4    23 1   
    12     4    31 1   
    13     4    38 1   
    14     5    17 ar  
    15     5    18 ar  
    16     5    39 1   
    17     6    18 ar  
    18     6    19 ar  
    19     6    40 1   
    20     7    17 ar  
    21     7    19 ar  
    22     7    41 1   
    23     8     9 1   
    24     8    26 1   
    25     8    42 1   
    26     8    75 1   
    27     9    17 1   
    28     9    45 1   
    29     9    46 1   
    30    10    11 1   
    31    10    29 1   
    32    10    47 1   
    33    10    75 1   
    34    11    13 1   
    35    11    27 1   
    36    11    48 1   
    37    12    20 1   
    38    12    28 1   
    39    12    49 1   
    40    12    74 1   
    41    13    50 1   
    42    13    51 1   
    43    14    52 1   
    44    15    53 1   
    45    16    54 1   
    46    18    55 1   
    47    19    56 1   
    48    20    57 1   
    49    20    58 1   
    50    20    59 1   
    51    21    34 1   
    52    21    63 1   
    53    21    79 1   
    54    22    23 1   
    55    22    34 1   
    56    22    35 1   
    57    22    64 1   
    58    23    25 1   
    59    23    65 1   
    60    24    25 1   
    61    24    35 1   
    62    24    66 1   
    63    24    67 1   
    64    25    68 1   
    65    25    69 1   
    66    26    70 1   
    67    26    76 1   
    68    27    71 1   
    69    27    74 1   
    70    28    72 1   
    71    28    77 1   
    72    29    73 1   
    73    30    76 2   
    74    31    76 1   
    75    32    77 1   
    76    32    80 1   
    77    33    77 2   
    78    43    75 1   
    79    44    75 1   
    80    60    80 1   
    81    61    80 1   
    82    62    80 1   
    83    74    78 2   
@<TRIPOS>SUBSTRUCTURE
     1 ORV         1 TEMP              0 ****  ****    0 ROOT
