@<TRIPOS>MOLECULE
ORW
   51    51     1     0     0
SMALL
No Charge or Current Charge


@<TRIPOS>ATOM
      1 OAW        -22.7100    13.0360   -21.8230 o          1 ORW      -0.634100
      2 CAN        -22.2200    12.3410   -22.6960 c          1 ORW       0.644100
      3 N          -20.9110    11.9440   -22.7060 ns         1 ORW      -0.496900
      4 CA         -19.9240    12.2380   -21.6410 c3         1 ORW       0.049700
      5 CB         -19.7850    11.0240   -20.6760 c3         1 ORW      -0.084400
      6 CG         -21.0060    10.7450   -19.7530 c3         1 ORW      -0.056700
      7 CD2        -21.2590    11.8880   -18.7390 c3         1 ORW      -0.091100
      8 CD1        -20.8430     9.3960   -19.0180 c3         1 ORW      -0.091100
      9 C          -18.5450    12.6250   -22.2670 c          1 ORW       0.574100
     10 O          -18.2720    12.3210   -23.4270 o          1 ORW      -0.575100
     11 NAE        -17.5800    13.2920   -21.4460 n          1 ORW      -0.251200
     12 CAF        -17.9220    13.9070   -20.1410 c3         1 ORW       0.105300
     13 NAC        -16.2250    13.5490   -21.9350 nh         1 ORW      -0.530600
     14 CAD        -16.0710    14.7460   -22.7890 c3         1 ORW       0.206100
     15 CAB        -15.3050    12.5160   -21.8170 c2         1 ORW       0.638100
     16 NAA        -14.1250    12.6340   -22.3030 n2         1 ORW      -0.837100
     17 NAO        -22.9170    11.8740   -23.7750 ns         1 ORW      -0.509900
     18 CAP        -24.3490    12.0820   -23.9860 c3         1 ORW       0.162300
     19 CAQ        -25.1580    10.8920   -23.4900 ca         1 ORW      -0.101300
     20 CAV        -25.4860    10.7770   -22.1250 ca         1 ORW      -0.100500
     21 CAU        -26.2280     9.6760   -21.6630 ca         1 ORW      -0.107500
     22 CAT        -26.6450     8.6820   -22.5640 ca         1 ORW      -0.110000
     23 CAS        -26.3200     8.7900   -23.9270 ca         1 ORW      -0.107500
     24 CAR        -25.5780     9.8910   -24.3890 ca         1 ORW      -0.100500
     25 H1         -20.5980    11.4060   -23.5030 hn         1 ORW       0.310500
     26 H2         -20.2670    13.1160   -21.0830 h1         1 ORW       0.090700
     27 H3         -19.5850    10.1310   -21.2820 hc         1 ORW       0.053200
     28 H4         -18.8990    11.1510   -20.0440 hc         1 ORW       0.053200
     29 H5         -21.8990    10.6560   -20.3840 hc         1 ORW       0.050700
     30 H6         -22.1090    11.6440   -18.0900 hc         1 ORW       0.035533
     31 H7         -20.3800    12.0490   -18.1040 hc         1 ORW       0.035533
     32 H8         -21.4940    12.8300   -19.2470 hc         1 ORW       0.035533
     33 H9         -21.7260     9.1790   -18.4040 hc         1 ORW       0.035533
     34 H10        -20.7230     8.5750   -19.7350 hc         1 ORW       0.035533
     35 H11        -19.9640     9.4110   -18.3620 hc         1 ORW       0.035533
     36 H12        -18.1570    13.1330   -19.4020 h1         1 ORW       0.046367
     37 H13        -17.0740    14.4960   -19.7690 h1         1 ORW       0.046367
     38 H14        -18.7840    14.5760   -20.2580 h1         1 ORW       0.046367
     39 H15        -16.9420    15.4080   -22.6950 h1         1 ORW       0.050033
     40 H16        -15.1760    15.3110   -22.4980 h1         1 ORW       0.050033
     41 H17        -15.9720    14.4520   -23.8420 h1         1 ORW       0.050033
     42 H18        -15.6500    11.6320   -21.2770 h5         1 ORW      -0.024200
     43 H19        -13.6130    11.7650   -22.0960 hn         1 ORW       0.384400
     44 H20        -22.4150    11.2990   -24.4390 hn         1 ORW       0.307500
     45 H21        -24.5270    12.2310   -25.0600 h1         1 ORW       0.062700
     46 H22        -24.6740    12.9950   -23.4690 h1         1 ORW       0.062700
     47 H23        -25.1640    11.5410   -21.4210 ha         1 ORW       0.108500
     48 H24        -26.4780     9.5930   -20.6080 ha         1 ORW       0.110500
     49 H25        -27.2190     7.8290   -22.2070 ha         1 ORW       0.112000
     50 H26        -26.6410     8.0200   -24.6250 ha         1 ORW       0.110500
     51 H27        -25.3280     9.9640   -25.4450 ha         1 ORW       0.108500
@<TRIPOS>BOND
     1     1     2 2   
     2     2     3 1   
     3     2    17 1   
     4     3     4 1   
     5     3    25 1   
     6     4     5 1   
     7     4     9 1   
     8     4    26 1   
     9     5     6 1   
    10     5    27 1   
    11     5    28 1   
    12     6     7 1   
    13     6     8 1   
    14     6    29 1   
    15     7    30 1   
    16     7    31 1   
    17     7    32 1   
    18     8    33 1   
    19     8    34 1   
    20     8    35 1   
    21     9    10 2   
    22     9    11 1   
    23    11    12 1   
    24    11    13 1   
    25    12    36 1   
    26    12    37 1   
    27    12    38 1   
    28    13    14 1   
    29    13    15 1   
    30    14    39 1   
    31    14    40 1   
    32    14    41 1   
    33    15    16 2   
    34    15    42 1   
    35    16    43 1   
    36    17    18 1   
    37    17    44 1   
    38    18    19 1   
    39    18    45 1   
    40    18    46 1   
    41    19    20 ar  
    42    19    24 ar  
    43    20    21 ar  
    44    20    47 1   
    45    21    22 ar  
    46    21    48 1   
    47    22    23 ar  
    48    22    49 1   
    49    23    24 ar  
    50    23    50 1   
    51    24    51 1   
@<TRIPOS>SUBSTRUCTURE
     1 ORW         1 TEMP              0 ****  ****    0 ROOT
