@<TRIPOS>MOLECULE
ORW
   51    51     1     0     0
SMALL
abcg2


@<TRIPOS>ATOM
      1 OAW        -21.8060    12.6310   -22.5950 o          1 ORW      -0.634100
      2 CAN        -21.6300    11.4730   -22.9550 c          1 ORW       0.644100
      3 N          -20.7590    10.6420   -22.3140 ns         1 ORW      -0.496900
      4 CA         -19.8910    11.1860   -21.3090 c3         1 ORW       0.049700
      5 CB         -19.1080    10.0660   -20.6190 c3         1 ORW      -0.084400
      6 CG         -19.9620     9.0620   -19.8420 c3         1 ORW      -0.056700
      7 CD2        -20.7880     9.7390   -18.7530 c3         1 ORW      -0.091100
      8 CD1        -19.0580     7.9890   -19.2430 c3         1 ORW      -0.091100
      9 C          -18.9080    12.1830   -21.9270 c          1 ORW       0.574100
     10 O          -18.5500    12.0830   -23.0840 o          1 ORW      -0.575100
     11 NAE        -18.4070    13.1490   -21.1050 n          1 ORW      -0.251200
     12 CAF        -18.8540    13.4330   -19.7520 c3         1 ORW       0.105300
     13 NAC        -17.6000    14.1060   -21.6730 nh         1 ORW      -0.530600
     14 CAD        -18.2420    15.1750   -22.4070 c3         1 ORW       0.206100
     15 CAB        -16.3090    13.7460   -21.9300 c2         1 ORW       0.638100
     16 NAA        -15.5570    14.4210   -22.6990 n2         1 ORW      -0.837100
     17 NAO        -22.2910    10.9250   -24.0060 ns         1 ORW      -0.509900
     18 CAP        -23.3630    11.6340   -24.6520 c3         1 ORW       0.162300
     19 CAQ        -24.6270    11.7730   -23.8320 ca         1 ORW      -0.101300
     20 CAV        -25.5040    12.8200   -24.1020 ca         1 ORW      -0.100500
     21 CAU        -26.6940    12.9500   -23.3990 ca         1 ORW      -0.107500
     22 CAT        -27.0220    12.0340   -22.4070 ca         1 ORW      -0.110000
     23 CAS        -26.1500    10.9900   -22.1290 ca         1 ORW      -0.107500
     24 CAR        -24.9620    10.8600   -22.8370 ca         1 ORW      -0.100500
     25 H1         -20.4600     9.7990   -22.7790 hn         1 ORW       0.310500
     26 H2         -20.5160    11.7010   -20.5790 h1         1 ORW       0.090700
     27 H3         -18.5130     9.5400   -21.3730 hc         1 ORW       0.053200
     28 H4         -18.3850    10.5170   -19.9320 hc         1 ORW       0.053200
     29 H5         -20.6480     8.5720   -20.5410 hc         1 ORW       0.050700
     30 H6         -21.3310     8.9990   -18.1630 hc         1 ORW       0.035533
     31 H7         -20.1470    10.3010   -18.0680 hc         1 ORW       0.035533
     32 H8         -21.5270    10.4290   -19.1610 hc         1 ORW       0.035533
     33 H9         -19.6400     7.2450   -18.6980 hc         1 ORW       0.035533
     34 H10        -18.4910     7.4660   -20.0150 hc         1 ORW       0.035533
     35 H11        -18.3420     8.4270   -18.5430 hc         1 ORW       0.035533
     36 H12        -19.1230    12.5220   -19.2250 h1         1 ORW       0.046367
     37 H13        -18.0310    13.8880   -19.2070 h1         1 ORW       0.046367
     38 H14        -19.7090    14.1120   -19.7340 h1         1 ORW       0.046367
     39 H15        -19.1610    15.4530   -21.8960 h1         1 ORW       0.050033
     40 H16        -17.5860    16.0420   -22.4290 h1         1 ORW       0.050033
     41 H17        -18.4790    14.8900   -23.4350 h1         1 ORW       0.050033
     42 H18        -16.0090    12.8530   -21.3790 h5         1 ORW      -0.024200
     43 H19        -14.6290    14.0160   -22.7030 hn         1 ORW       0.384400
     44 H20        -22.2110     9.9360   -24.1780 hn         1 ORW       0.307500
     45 H21        -23.5920    11.0950   -25.5740 h1         1 ORW       0.062700
     46 H22        -23.0200    12.6240   -24.9560 h1         1 ORW       0.062700
     47 H23        -25.2540    13.5460   -24.8670 ha         1 ORW       0.108500
     48 H24        -27.3640    13.7710   -23.6210 ha         1 ORW       0.110500
     49 H25        -27.9470    12.1350   -21.8550 ha         1 ORW       0.112000
     50 H26        -26.3930    10.2710   -21.3570 ha         1 ORW       0.110500
     51 H27        -24.2910    10.0420   -22.6050 ha         1 ORW       0.108500
@<TRIPOS>BOND
     1     1     2 2   
     2     2     3 1   
     3     2    17 1   
     4     3     4 1   
     5     3    25 1   
     6     4     5 1   
     7     4     9 1   
     8     4    26 1   
     9     5     6 1   
    10     5    27 1   
    11     5    28 1   
    12     6     7 1   
    13     6     8 1   
    14     6    29 1   
    15     7    30 1   
    16     7    31 1   
    17     7    32 1   
    18     8    33 1   
    19     8    34 1   
    20     8    35 1   
    21     9    10 2   
    22     9    11 1   
    23    11    12 1   
    24    11    13 1   
    25    12    36 1   
    26    12    37 1   
    27    12    38 1   
    28    13    14 1   
    29    13    15 1   
    30    14    39 1   
    31    14    40 1   
    32    14    41 1   
    33    15    16 2   
    34    15    42 1   
    35    16    43 1   
    36    17    18 1   
    37    17    44 1   
    38    18    19 1   
    39    18    45 1   
    40    18    46 1   
    41    19    20 ar  
    42    19    24 ar  
    43    20    21 ar  
    44    20    47 1   
    45    21    22 ar  
    46    21    48 1   
    47    22    23 ar  
    48    22    49 1   
    49    23    24 ar  
    50    23    50 1   
    51    24    51 1   
@<TRIPOS>SUBSTRUCTURE
     1 ORW         1 TEMP              0 ****  ****    0 ROOT
