@<TRIPOS>MOLECULE
OS0
   14    14     1     0     0
SMALL
abcg2


@<TRIPOS>ATOM
      1 C02         -4.5820     1.3160    74.1580 c          1 OS0       0.619000
      2 C04         -3.1320     0.0460    75.6060 c2         1 OS0      -0.013400
      3 C05         -3.7780    -1.0940    75.3780 c2         1 OS0      -0.374200
      4 C06         -5.0800    -1.0730    74.6440 c6         1 OS0       0.400900
      5 N03         -3.5870     1.2450    75.0970 ns         1 OS0      -0.422100
      6 N08         -5.1620     0.1240    73.8600 ns         1 OS0      -0.501900
      7 O01         -4.8850     2.3640    73.6090 o          1 OS0      -0.582000
      8 O07         -6.1850    -1.0940    75.5330 oh         1 OS0      -0.686000
      9 H1          -2.2220     0.1070    76.1860 h4         1 OS0       0.195000
     10 H2          -3.4080    -2.0280    75.7730 ha         1 OS0       0.196000
     11 H4          -5.9000     0.1720    73.1720 hn         1 OS0       0.330500
     12 H5          -6.2540    -1.9800    75.9040 ho         1 OS0       0.455000
     13 H3          -3.0730     2.0910    75.2810 hn         1 OS0       0.339500
     14 H6          -5.1510    -1.9240    73.9590 h2         1 OS0       0.045700
@<TRIPOS>BOND
     1     1     5 1   
     2     1     6 1   
     3     1     7 2   
     4     2     3 2   
     5     2     5 1   
     6     2     9 1   
     7     3     4 1   
     8     3    10 1   
     9     4     6 1   
    10     4     8 1   
    11     4    14 1   
    12     5    13 1   
    13     6    11 1   
    14     8    12 1   
@<TRIPOS>SUBSTRUCTURE
     1 OS0         1 TEMP              0 ****  ****    0 ROOT
