@<TRIPOS>MOLECULE
OS0
   14    14     1     0     0
SMALL
No Charge or Current Charge


@<TRIPOS>ATOM
      1 C02         -4.5490     1.3470    74.1220 c          1 OS0       0.619000
      2 C04         -3.1330     0.0560    75.6530 c2         1 OS0      -0.013400
      3 C05         -3.8880    -1.0360    75.5060 c2         1 OS0      -0.374200
      4 C06         -5.0960    -1.0660    74.6000 c6         1 OS0       0.400900
      5 N03         -3.4710     1.2180    74.9580 ns         1 OS0      -0.422100
      6 N08         -5.3210     0.2240    73.9780 ns         1 OS0      -0.501900
      7 O01         -4.8070     2.3880    73.5470 o          1 OS0      -0.582000
      8 O07         -6.2320    -1.3590    75.3810 oh         1 OS0      -0.686000
      9 H1          -2.2450     0.1220    76.2880 h4         1 OS0       0.195000
     10 H2          -3.6400    -1.9610    76.0270 ha         1 OS0       0.196000
     11 H4          -6.1300     0.3180    73.3840 hn         1 OS0       0.330500
     12 H5          -6.0220    -2.2020    75.8350 ho         1 OS0       0.455000
     13 H3          -2.8990     2.0480    75.0670 hn         1 OS0       0.339500
     14 H6          -4.9650    -1.8260    73.8140 h2         1 OS0       0.045700
@<TRIPOS>BOND
     1     1     5 1   
     2     1     6 1   
     3     1     7 2   
     4     2     3 2   
     5     2     5 1   
     6     2     9 1   
     7     3     4 1   
     8     3    10 1   
     9     4     6 1   
    10     4     8 1   
    11     4    14 1   
    12     5    13 1   
    13     6    11 1   
    14     8    12 1   
@<TRIPOS>SUBSTRUCTURE
     1 OS0         1 TEMP              0 ****  ****    0 ROOT
