@<TRIPOS>MOLECULE
OS2
   41    43     1     0     0
SMALL
abcg2


@<TRIPOS>ATOM
      1 O3          -0.8250     1.6660     2.2560 oh         1 OS2      -0.642000
      2 C3          -1.2700     1.7040     0.9180 c5         1 OS2       0.172300
      3 C2          -0.1440     1.5530    -0.1060 c5         1 OS2       0.125800
      4 N1          -0.0780     0.1270    -0.3430 n3         1 OS2      -0.692600
      5 C1          -1.4630    -0.2700    -0.4840 c5         1 OS2       0.164800
      6 C4          -2.1620     0.4680     0.6620 c5         1 OS2      -0.059700
      7 C5          -3.6020     0.8440     0.3600 c3         1 OS2       0.064600
      8 S5          -4.5780    -0.6600     0.0750 ss         1 OS2      -0.415000
      9 C20         -6.1980     0.1100    -0.2530 c3         1 OS2       0.152700
     10 C21         -7.1650    -0.9170    -0.5880 c1         1 OS2      -0.142100
     11 C22         -7.9580    -1.7790    -0.8600 c1         1 OS2      -0.215000
     12 C10          0.7600    -0.2690    -1.4530 c3         1 OS2       0.257000
     13 C9           2.1920     0.0760    -1.2200 cc         1 OS2      -0.262000
     14 C11          3.0500    -0.4400    -0.2080 ca         1 OS2       0.142800
     15 N3           2.8180    -1.3630     0.7480 nb         1 OS2      -0.145000
     16 C8           2.9460     0.9850    -1.9180 cd         1 OS2      -0.149100
     17 N7           4.2030     1.0560    -1.4050 na         1 OS2      -0.203700
     18 C12          4.2910     0.1900    -0.3530 ca         1 OS2      -0.221200
     19 C6           5.3250    -0.1440     0.5350 ca         1 OS2       0.386900
     20 N6           6.5420     0.4360     0.5070 nv         1 OS2      -1.077900
     21 N2           5.0690    -1.0520     1.4720 nb         1 OS2      -0.270000
     22 C7           3.8500    -1.6010     1.5210 ca         1 OS2       0.135900
     23 H1          -0.2740     2.4390     2.4080 ho         1 OS2       0.440000
     24 H2          -1.8220     2.6340     0.7270 h1         1 OS2       0.026700
     25 H3          -0.4180     2.1020    -1.0250 h1         1 OS2       0.036700
     26 H4           0.8080     1.9570     0.2440 h1         1 OS2       0.036700
     27 H6          -1.8890     0.0520    -1.4530 h1         1 OS2       0.044200
     28 H7          -1.5720    -1.3550    -0.4260 h1         1 OS2       0.044200
     29 H8          -2.1370    -0.1520     1.5630 hc         1 OS2       0.099700
     30 H9          -4.0360     1.3980     1.1950 h1         1 OS2       0.057200
     31 H10         -3.6520     1.4760    -0.5310 h1         1 OS2       0.057200
     32 H11         -6.5270     0.6620     0.6300 h1         1 OS2       0.071200
     33 H12         -6.1020     0.8210    -1.0770 h1         1 OS2       0.071200
     34 H13         -8.6640    -2.5390    -1.1030 ha         1 OS2       0.258000
     35 H14          0.6540    -1.3500    -1.5830 h1         1 OS2       0.037200
     36 H15          0.4270     0.1940    -2.3980 h1         1 OS2       0.037200
     37 H16          2.6640     1.5980    -2.7610 h4         1 OS2       0.213000
     38 H17          4.9260     1.6610    -1.7550 hn         1 OS2       0.349000
     39 H18          6.8540     0.9320    -0.3090 hn         1 OS2       0.483000
     40 H19          7.2660     0.0350     1.0790 hn         1 OS2       0.483000
     41 H20          3.7100    -2.3370     2.3060 h5         1 OS2       0.046100
@<TRIPOS>BOND
     1     1     2 1   
     2     1    23 1   
     3     2     3 1   
     4     2     6 1   
     5     2    24 1   
     6     3     4 1   
     7     3    25 1   
     8     3    26 1   
     9     4     5 1   
    10     4    12 1   
    11     5     6 1   
    12     5    27 1   
    13     5    28 1   
    14     6     7 1   
    15     6    29 1   
    16     7     8 1   
    17     7    30 1   
    18     7    31 1   
    19     8     9 1   
    20     9    10 1   
    21     9    32 1   
    22     9    33 1   
    23    10    11 3   
    24    11    34 1   
    25    12    13 1   
    26    12    35 1   
    27    12    36 1   
    28    13    14 1   
    29    13    16 2   
    30    14    15 ar  
    31    14    18 ar  
    32    15    22 ar  
    33    16    17 1   
    34    16    37 1   
    35    17    18 1   
    36    17    38 1   
    37    18    19 ar  
    38    19    20 1   
    39    19    21 ar  
    40    20    39 1   
    41    20    40 1   
    42    21    22 ar  
    43    22    41 1   
@<TRIPOS>SUBSTRUCTURE
     1 OS2         1 TEMP              0 ****  ****    0 ROOT
