@<TRIPOS>MOLECULE
OS2
   41    43     1     0     0
SMALL
No Charge or Current Charge


@<TRIPOS>ATOM
      1 O3          -1.3850     2.6880     1.7230 oh         1 OS2      -0.642000
      2 C3          -1.4460     2.1860     0.3820 c5         1 OS2       0.172300
      3 C2          -0.0320     1.9000    -0.2450 c5         1 OS2       0.125800
      4 N1          -0.0680     0.4610    -0.6250 n3         1 OS2      -0.692600
      5 C1          -1.4840     0.2000    -0.9480 c5         1 OS2       0.164800
      6 C4          -2.1470     0.7970     0.3160 c5         1 OS2      -0.059700
      7 C5          -3.6890     0.8670     0.2780 c3         1 OS2       0.064600
      8 S5          -4.4680    -0.8080     0.1900 ss         1 OS2      -0.415000
      9 C20         -6.2530    -0.3250     0.1630 c3         1 OS2       0.152700
     10 C21         -7.1160    -1.5110     0.0900 c1         1 OS2      -0.142100
     11 C22         -7.8510    -2.4710     0.0300 c1         1 OS2      -0.215000
     12 C10          0.9170     0.0300    -1.6340 c3         1 OS2       0.257000
     13 C9           2.3350     0.2680    -1.1870 cc         1 OS2      -0.262000
     14 C11          3.0930    -0.5580    -0.2930 ca         1 OS2       0.142800
     15 N3           2.7140    -1.6920     0.3240 nb         1 OS2      -0.145000
     16 C8           3.1780     1.3200    -1.5460 cd         1 OS2      -0.149100
     17 N7           4.4320     1.1710    -0.9010 na         1 OS2      -0.203700
     18 C12          4.3270     0.0050    -0.1510 ca         1 OS2      -0.221200
     19 C6           5.2540    -0.6330     0.6860 ca         1 OS2       0.386900
     20 N6           6.5150    -0.1690     0.8960 nv         1 OS2      -1.077900
     21 N2           4.9240    -1.7690     1.3280 nb         1 OS2      -0.270000
     22 C7           3.6680    -2.2440     1.1150 ca         1 OS2       0.135900
     23 H1          -0.9020     3.5420     1.6850 ho         1 OS2       0.440000
     24 H2          -1.9800     2.9040    -0.2560 h1         1 OS2       0.026700
     25 H3           0.1200     2.5370    -1.1280 h1         1 OS2       0.036700
     26 H4           0.7870     2.1050     0.4580 h1         1 OS2       0.036700
     27 H6          -1.8030     0.7170    -1.8650 h1         1 OS2       0.044200
     28 H7          -1.6940    -0.8730    -1.0590 h1         1 OS2       0.044200
     29 H8          -1.8800     0.1940     1.1920 hc         1 OS2       0.099700
     30 H9          -4.0480     1.3760     1.1830 h1         1 OS2       0.057200
     31 H10         -4.0060     1.4550    -0.5930 h1         1 OS2       0.057200
     32 H11         -6.4900     0.2420     1.0730 h1         1 OS2       0.071200
     33 H12         -6.4430     0.3170    -0.7060 h1         1 OS2       0.071200
     34 H13         -8.4900    -3.3300    -0.0240 ha         1 OS2       0.258000
     35 H14          0.7920    -1.0410    -1.8420 h1         1 OS2       0.037200
     36 H15          0.7480     0.5660    -2.5790 h1         1 OS2       0.037200
     37 H16          2.9760     2.1610    -2.2060 h4         1 OS2       0.213000
     38 H17          5.2300     1.7970    -0.9660 hn         1 OS2       0.349000
     39 H18          6.9020     0.5090     0.2450 hn         1 OS2       0.483000
     40 H19          7.1820    -0.7820     1.3590 hn         1 OS2       0.483000
     41 H20          3.3990    -3.1630     1.6330 h5         1 OS2       0.046100
@<TRIPOS>BOND
     1     1     2 1   
     2     1    23 1   
     3     2     3 1   
     4     2     6 1   
     5     2    24 1   
     6     3     4 1   
     7     3    25 1   
     8     3    26 1   
     9     4     5 1   
    10     4    12 1   
    11     5     6 1   
    12     5    27 1   
    13     5    28 1   
    14     6     7 1   
    15     6    29 1   
    16     7     8 1   
    17     7    30 1   
    18     7    31 1   
    19     8     9 1   
    20     9    10 1   
    21     9    32 1   
    22     9    33 1   
    23    10    11 3   
    24    11    34 1   
    25    12    13 1   
    26    12    35 1   
    27    12    36 1   
    28    13    14 1   
    29    13    16 2   
    30    14    15 ar  
    31    14    18 ar  
    32    15    22 ar  
    33    16    17 1   
    34    16    37 1   
    35    17    18 1   
    36    17    38 1   
    37    18    19 ar  
    38    19    20 1   
    39    19    21 ar  
    40    20    39 1   
    41    20    40 1   
    42    21    22 ar  
    43    22    41 1   
@<TRIPOS>SUBSTRUCTURE
     1 OS2         1 TEMP              0 ****  ****    0 ROOT
