@<TRIPOS>MOLECULE
OS3
   47    49     1     0     0
SMALL
No Charge or Current Charge


@<TRIPOS>ATOM
      1 N6           7.2840     0.5120    -0.8450 nv         1 OS3      -1.073900
      2 C6           5.9880     0.9020    -0.7130 ca         1 OS3       0.385900
      3 N1           5.5660     1.8730    -1.5460 nb         1 OS3      -0.270000
      4 C2           4.2680     2.2640    -1.4210 ca         1 OS3       0.135900
      5 N3           3.3510     1.7780    -0.5460 nb         1 OS3      -0.148000
      6 C5           5.1060     0.3460     0.2210 ca         1 OS3      -0.220200
      7 C4           3.8260     0.8110     0.2580 ca         1 OS3       0.142800
      8 N7           5.2660    -0.6390     1.1900 na         1 OS3      -0.203700
      9 C8           4.0460    -0.8240     1.8800 cc         1 OS3      -0.148100
     10 C9           3.1530     0.0760     1.3000 cd         1 OS3      -0.261000
     11 C10          1.7100     0.2610     1.6970 c3         1 OS3       0.252000
     12 N1A          0.7810    -0.4240     0.7780 n3         1 OS3      -0.687600
     13 C2A          0.9470    -1.8980     0.6560 c5         1 OS3       0.124800
     14 C3A         -0.4270    -2.4110     0.0860 c5         1 OS3       0.171300
     15 O3A         -0.3010    -3.1300    -1.1460 oh         1 OS3      -0.642000
     16 C1A         -0.6570    -0.2350     1.0500 c5         1 OS3       0.162800
     17 C4A         -1.2460    -1.0980    -0.0900 c5         1 OS3      -0.059700
     18 C5A         -2.7760    -1.2970    -0.0390 c3         1 OS3       0.071600
     19 S5A         -3.7000     0.2940    -0.2420 ss         1 OS3      -0.436000
     20 C20         -5.4350    -0.3320    -0.1240 c3         1 OS3       0.061600
     21 C21         -6.4370     0.8300    -0.2630 c3         1 OS3      -0.063400
     22 C22         -7.9070     0.3680    -0.1720 c3         1 OS3       0.007700
     23 C23         -8.8570     1.4810    -0.3040 c1         1 OS3      -0.147100
     24 C24         -9.6170     2.4160    -0.4160 c1         1 OS3      -0.242000
     25 H1           7.5720    -0.3760    -0.4420 hn         1 OS3       0.482000
     26 H2           7.8010     0.8260    -1.6630 hn         1 OS3       0.482000
     27 H3           3.9280     3.0500    -2.0940 h5         1 OS3       0.045100
     28 H4           6.1290    -1.1410     1.3820 hn         1 OS3       0.349000
     29 H5           3.9200    -1.5430     2.6860 h4         1 OS3       0.212000
     30 H6           1.5730    -0.1130     2.7210 h1         1 OS3       0.038200
     31 H7           1.4900     1.3370     1.7140 h1         1 OS3       0.038200
     32 H9           1.7920    -2.1490     0.0000 h1         1 OS3       0.036200
     33 H10          1.1390    -2.3560     1.6360 h1         1 OS3       0.036200
     34 H11         -0.9060    -3.0520     0.8400 h1         1 OS3       0.026700
     35 H12          0.2560    -3.9170    -0.9600 ho         1 OS3       0.438000
     36 H13         -0.9440    -0.6100     2.0430 h1         1 OS3       0.044200
     37 H14         -0.9600     0.8180     0.9720 h1         1 OS3       0.044200
     38 H15         -1.0200    -0.6360    -1.0580 hc         1 OS3       0.099700
     39 H16         -3.0770    -1.9840    -0.8410 h1         1 OS3       0.056700
     40 H17         -3.0540    -1.7500     0.9210 h1         1 OS3       0.056700
     41 H18         -5.6060    -1.0680    -0.9210 h1         1 OS3       0.054700
     42 H19         -5.5720    -0.8280     0.8450 h1         1 OS3       0.054700
     43 H20         -6.2370     1.5690     0.5240 hc         1 OS3       0.061700
     44 H21         -6.2710     1.3310    -1.2250 hc         1 OS3       0.061700
     45 H22         -8.1110    -0.3690    -0.9580 hc         1 OS3       0.055200
     46 H23         -8.0780    -0.1320     0.7900 hc         1 OS3       0.055200
     47 H24        -10.2810     3.2520    -0.5180 ha         1 OS3       0.255000
@<TRIPOS>BOND
     1     1     2 1   
     2     1    25 1   
     3     1    26 1   
     4     2     3 ar  
     5     2     6 ar  
     6     3     4 ar  
     7     4     5 ar  
     8     4    27 1   
     9     5     7 ar  
    10     6     7 ar  
    11     6     8 1   
    12     7    10 1   
    13     8     9 1   
    14     8    28 1   
    15     9    10 2   
    16     9    29 1   
    17    10    11 1   
    18    11    12 1   
    19    11    30 1   
    20    11    31 1   
    21    12    13 1   
    22    12    16 1   
    23    13    14 1   
    24    13    32 1   
    25    13    33 1   
    26    14    15 1   
    27    14    17 1   
    28    14    34 1   
    29    15    35 1   
    30    16    17 1   
    31    16    36 1   
    32    16    37 1   
    33    17    18 1   
    34    17    38 1   
    35    18    19 1   
    36    18    39 1   
    37    18    40 1   
    38    19    20 1   
    39    20    21 1   
    40    20    41 1   
    41    20    42 1   
    42    21    22 1   
    43    21    43 1   
    44    21    44 1   
    45    22    23 1   
    46    22    45 1   
    47    22    46 1   
    48    23    24 3   
    49    24    47 1   
@<TRIPOS>SUBSTRUCTURE
     1 OS3         1 TEMP              0 ****  ****    0 ROOT
