@<TRIPOS>MOLECULE
OS3
   47    49     1     0     0
SMALL
abcg2


@<TRIPOS>ATOM
      1 N6           7.4640    -0.0080    -0.0540 nv         1 OS3      -1.073900
      2 C6           6.2140     0.4290    -0.3040 ca         1 OS3       0.385900
      3 N1           6.0050     1.1980    -1.3690 nb         1 OS3      -0.270000
      4 C2           4.7730     1.6680    -1.5930 ca         1 OS3       0.135900
      5 N3           3.6840     1.4680    -0.8900 nb         1 OS3      -0.148000
      6 C5           5.1180     0.1510     0.5270 ca         1 OS3      -0.220200
      7 C4           3.8690     0.6870     0.1940 ca         1 OS3       0.142800
      8 N7           4.9740    -0.5670     1.6800 na         1 OS3      -0.203700
      9 C8           3.6750    -0.4920     2.0750 cc         1 OS3      -0.148100
     10 C9           2.9470     0.2690     1.1960 cd         1 OS3      -0.261000
     11 C10          1.4900     0.5750     1.2670 c3         1 OS3       0.252000
     12 N1A          0.7260    -0.1300     0.2600 n3         1 OS3      -0.687600
     13 C2A          0.7550    -1.5730     0.3870 c5         1 OS3       0.124800
     14 C3A         -0.3540    -2.0550    -0.5520 c5         1 OS3       0.171300
     15 O3A          0.0980    -2.3660    -1.8530 oh         1 OS3      -0.642000
     16 C1A         -0.6840     0.1990     0.2830 c5         1 OS3       0.162800
     17 C4A         -1.3100    -0.8460    -0.6440 c5         1 OS3      -0.059700
     18 C5A         -2.7430    -1.2020    -0.2890 c3         1 OS3       0.071600
     19 S5A         -3.8080     0.2520    -0.5030 ss         1 OS3      -0.436000
     20 C20         -5.3870    -0.4180     0.0870 c3         1 OS3       0.061600
     21 C21         -6.4680     0.6460    -0.0230 c3         1 OS3      -0.063400
     22 C22         -7.8110     0.1180     0.4880 c3         1 OS3       0.007700
     23 C23         -8.8760     1.1060     0.3710 c1         1 OS3      -0.147100
     24 C24         -9.7420     1.9340     0.2630 c1         1 OS3      -0.242000
     25 H1           7.6190    -0.7800     0.5710 hn         1 OS3       0.482000
     26 H2           8.1520     0.1080    -0.7800 hn         1 OS3       0.482000
     27 H3           4.6740     2.2920    -2.4760 h5         1 OS3       0.045100
     28 H4           5.6920    -1.0630     2.1800 hn         1 OS3       0.349000
     29 H5           3.3480    -0.9930     2.9730 h4         1 OS3       0.212000
     30 H6           1.1220     0.3430     2.2820 h1         1 OS3       0.038200
     31 H7           1.3330     1.6470     1.1180 h1         1 OS3       0.038200
     32 H9           1.7330    -1.9880     0.1340 h1         1 OS3       0.036200
     33 H10          0.5210    -1.8940     1.4180 h1         1 OS3       0.036200
     34 H11         -0.8600    -2.9230    -0.1100 h1         1 OS3       0.026700
     35 H12          0.6390    -3.1590    -1.8010 ho         1 OS3       0.438000
     36 H13         -1.1110     0.1040     1.2990 h1         1 OS3       0.044200
     37 H14         -0.8560     1.2260    -0.0460 h1         1 OS3       0.044200
     38 H15         -1.2790    -0.4800    -1.6750 hc         1 OS3       0.099700
     39 H16         -3.1070    -2.0100    -0.9280 h1         1 OS3       0.056700
     40 H17         -2.8060    -1.5400     0.7490 h1         1 OS3       0.056700
     41 H18         -5.6530    -1.2940    -0.5090 h1         1 OS3       0.054700
     42 H19         -5.2710    -0.7420     1.1240 h1         1 OS3       0.054700
     43 H20         -6.1820     1.5290     0.5530 hc         1 OS3       0.061700
     44 H21         -6.5740     0.9610    -1.0630 hc         1 OS3       0.061700
     45 H22         -8.0950    -0.7780    -0.0720 hc         1 OS3       0.055200
     46 H23         -7.7190    -0.1880     1.5330 hc         1 OS3       0.055200
     47 H24        -10.5130     2.6630     0.1650 ha         1 OS3       0.255000
@<TRIPOS>BOND
     1     1     2 1   
     2     1    25 1   
     3     1    26 1   
     4     2     3 ar  
     5     2     6 ar  
     6     3     4 ar  
     7     4     5 ar  
     8     4    27 1   
     9     5     7 ar  
    10     6     7 ar  
    11     6     8 1   
    12     7    10 1   
    13     8     9 1   
    14     8    28 1   
    15     9    10 2   
    16     9    29 1   
    17    10    11 1   
    18    11    12 1   
    19    11    30 1   
    20    11    31 1   
    21    12    13 1   
    22    12    16 1   
    23    13    14 1   
    24    13    32 1   
    25    13    33 1   
    26    14    15 1   
    27    14    17 1   
    28    14    34 1   
    29    15    35 1   
    30    16    17 1   
    31    16    36 1   
    32    16    37 1   
    33    17    18 1   
    34    17    38 1   
    35    18    19 1   
    36    18    39 1   
    37    18    40 1   
    38    19    20 1   
    39    20    21 1   
    40    20    41 1   
    41    20    42 1   
    42    21    22 1   
    43    21    43 1   
    44    21    44 1   
    45    22    23 1   
    46    22    45 1   
    47    22    46 1   
    48    23    24 3   
    49    24    47 1   
@<TRIPOS>SUBSTRUCTURE
     1 OS3         1 TEMP              0 ****  ****    0 ROOT
