@<TRIPOS>MOLECULE
OS5
   64    68     1     0     0
SMALL
No Charge or Current Charge


@<TRIPOS>ATOM
      1 O           -3.3620     3.6320     0.4070 oh         1 OS5      -0.642000
      2 C15         -3.3400     2.4720     1.2470 c5         1 OS5       0.171300
      3 C14         -4.7130     1.7040     1.2930 c5         1 OS5       0.127800
      4 N           -4.3910     0.3230     0.8410 n3         1 OS5      -0.693600
      5 C7          -5.3600    -0.7250     1.2160 c3         1 OS5       0.256000
      6 C8          -6.7340    -0.4580     0.6630 cc         1 OS5      -0.260000
      7 C13         -7.1770    -0.7200    -0.6750 ca         1 OS5       0.142800
      8 N4          -6.4830    -1.2480    -1.7000 nb         1 OS5      -0.146000
      9 C12         -7.1890    -1.3700    -2.8500 ca         1 OS5       0.134900
     10 N3          -8.4880    -1.0220    -3.0490 nb         1 OS5      -0.269000
     11 C11         -9.1390    -0.5000    -1.9930 ca         1 OS5       0.383900
     12 N2         -10.4410    -0.1620    -2.1960 nv         1 OS5      -1.072900
     13 C10         -8.4840    -0.3370    -0.7640 ca         1 OS5      -0.220200
     14 N1          -8.9360     0.1750     0.4460 na         1 OS5      -0.204700
     15 C9          -7.8310     0.0900     1.3300 cd         1 OS5      -0.148100
     16 C6          -2.9990     0.1060     1.2810 c5         1 OS5       0.165800
     17 C5          -2.3510     1.3920     0.7170 c5         1 OS5      -0.059700
     18 C4          -0.8820     1.6220     1.1300 c3         1 OS5       0.071600
     19 S            0.2470     0.3060     0.4860 ss         1 OS5      -0.437000
     20 C3           1.8540     0.9060     1.1720 c3         1 OS5       0.063600
     21 C2           2.9980    -0.0460     0.7710 c3         1 OS5      -0.064400
     22 C1           4.3730     0.4030     1.3130 c3         1 OS5      -0.089700
     23 C            5.4910    -0.5190     0.9110 cc         1 OS5       0.203300
     24 N5           5.7200    -1.6940     1.5690 nc         1 OS5      -0.359000
     25 N7           6.7480    -2.2850     1.0130 nd         1 OS5      -0.207800
     26 N6           7.1790    -1.4760    -0.0080 na         1 OS5       0.126800
     27 C16          6.3940    -0.3490    -0.0900 cd         1 OS5      -0.205000
     28 C17          8.3300    -1.8320    -0.8550 c3         1 OS5       0.126900
     29 C18          9.4140    -0.7550    -0.9190 ca         1 OS5      -0.126300
     30 C23          9.8810    -0.1340     0.2590 ca         1 OS5      -0.088000
     31 C22         10.8780     0.8540     0.1920 ca         1 OS5      -0.112000
     32 C21         11.4180     1.2270    -1.0490 ca         1 OS5      -0.095000
     33 C20         10.9620     0.6090    -2.2250 ca         1 OS5      -0.112000
     34 C19          9.9640    -0.3790    -2.1610 ca         1 OS5      -0.088000
     35 H1          -4.0290     4.2450     0.7870 ho         1 OS5       0.438000
     36 H2          -3.0620     2.7630     2.2700 h1         1 OS5       0.025700
     37 H3          -5.1060     1.7030     2.3190 h1         1 OS5       0.036700
     38 H4          -5.4720     2.1660     0.6470 h1         1 OS5       0.036700
     39 H6          -5.0170    -1.7000     0.8410 h1         1 OS5       0.037700
     40 H7          -5.4260    -0.8050     2.3100 h1         1 OS5       0.037700
     41 H8          -6.6610    -1.7920    -3.7030 h5         1 OS5       0.045100
     42 H9         -10.8900    -0.4860    -3.0500 hn         1 OS5       0.480500
     43 H10        -11.0470    -0.0240    -1.3920 hn         1 OS5       0.480500
     44 H11         -9.8580     0.5480     0.6560 hn         1 OS5       0.349000
     45 H12         -7.9020     0.4280     2.3620 h4         1 OS5       0.212000
     46 H13         -2.9140     0.0460     2.3760 h1         1 OS5       0.045200
     47 H14         -2.5630    -0.8040     0.8460 h1         1 OS5       0.045200
     48 H15         -2.3690     1.3650    -0.3790 hc         1 OS5       0.098700
     49 H16         -0.5480     2.5940     0.7430 h1         1 OS5       0.055700
     50 H17         -0.8110     1.6480     2.2260 h1         1 OS5       0.055700
     51 H18          2.0560     1.9130     0.7860 h1         1 OS5       0.053200
     52 H19          1.7800     0.9590     2.2660 h1         1 OS5       0.053200
     53 H20          2.7730    -1.0530     1.1430 hc         1 OS5       0.061700
     54 H21          3.0450    -0.1100    -0.3230 hc         1 OS5       0.061700
     55 H22          4.5890     1.4150     0.9510 hc         1 OS5       0.050700
     56 H23          4.3270     0.4690     2.4070 hc         1 OS5       0.050700
     57 H24          6.5340     0.4430    -0.8140 h4         1 OS5       0.167000
     58 H25          8.7740    -2.7600    -0.4740 h1         1 OS5       0.077700
     59 H26          7.9520    -2.0400    -1.8640 h1         1 OS5       0.077700
     60 H27          9.4730    -0.4170     1.2270 ha         1 OS5       0.119500
     61 H28         11.2320     1.3300     1.1040 ha         1 OS5       0.117500
     62 H29         12.1910     1.9920    -1.1000 ha         1 OS5       0.116000
     63 H30         11.3810     0.8960    -3.1880 ha         1 OS5       0.117500
     64 H31          9.6200    -0.8510    -3.0790 ha         1 OS5       0.119500
@<TRIPOS>BOND
     1     1     2 1   
     2     1    35 1   
     3     2     3 1   
     4     2    17 1   
     5     2    36 1   
     6     3     4 1   
     7     3    37 1   
     8     3    38 1   
     9     4     5 1   
    10     4    16 1   
    11     5     6 1   
    12     5    39 1   
    13     5    40 1   
    14     6     7 1   
    15     6    15 2   
    16     7     8 ar  
    17     7    13 ar  
    18     8     9 ar  
    19     9    10 ar  
    20     9    41 1   
    21    10    11 ar  
    22    11    12 1   
    23    11    13 ar  
    24    12    42 1   
    25    12    43 1   
    26    13    14 1   
    27    14    15 1   
    28    14    44 1   
    29    15    45 1   
    30    16    17 1   
    31    16    46 1   
    32    16    47 1   
    33    17    18 1   
    34    17    48 1   
    35    18    19 1   
    36    18    49 1   
    37    18    50 1   
    38    19    20 1   
    39    20    21 1   
    40    20    51 1   
    41    20    52 1   
    42    21    22 1   
    43    21    53 1   
    44    21    54 1   
    45    22    23 1   
    46    22    55 1   
    47    22    56 1   
    48    23    24 1   
    49    23    27 2   
    50    24    25 2   
    51    25    26 1   
    52    26    27 1   
    53    26    28 1   
    54    27    57 1   
    55    28    29 1   
    56    28    58 1   
    57    28    59 1   
    58    29    30 ar  
    59    29    34 ar  
    60    30    31 ar  
    61    30    60 1   
    62    31    32 ar  
    63    31    61 1   
    64    32    33 ar  
    65    32    62 1   
    66    33    34 ar  
    67    33    63 1   
    68    34    64 1   
@<TRIPOS>SUBSTRUCTURE
     1 OS5         1 TEMP              0 ****  ****    0 ROOT
