@<TRIPOS>MOLECULE
OS5
   64    68     1     0     0
SMALL
bcc


@<TRIPOS>ATOM
      1 O           -3.8300     3.1290    -0.8500 oh         1 OS5      -0.579800
      2 C15         -3.3680     2.3930     0.2620 c5         1 OS5       0.148100
      3 C14         -4.4480     1.5420     0.9350 c5         1 OS5       0.127800
      4 N           -4.3140     0.2420     0.3120 n3         1 OS5      -0.693600
      5 C7          -5.0530    -0.8210     0.9580 c3         1 OS5       0.256000
      6 C8          -6.5270    -0.6080     0.8850 cc         1 OS5      -0.260000
      7 C13         -7.3500    -0.6720    -0.2750 ca         1 OS5       0.471100
      8 N4          -7.0340    -0.9610    -1.5540 nb         1 OS5      -0.672000
      9 C12         -8.0590    -0.9440    -2.3720 ca         1 OS5       0.660900
     10 N3          -9.3410    -0.6820    -2.0930 nb         1 OS5      -0.795000
     11 C11         -9.6780    -0.3960    -0.8390 ca         1 OS5       0.712200
     12 N2         -10.9650    -0.0970    -0.5660 nv         1 OS5      -0.962500
     13 C10         -8.6600    -0.3850     0.1260 ca         1 OS5      -0.350800
     14 N1          -8.6450    -0.1510     1.4720 na         1 OS5      -0.154400
     15 C9          -7.3680    -0.2850     1.9190 cd         1 OS5      -0.098100
     16 C6          -2.8850     0.0160     0.2670 c5         1 OS5       0.165800
     17 C5          -2.3360     1.3540    -0.2310 c5         1 OS5      -0.059700
     18 C4          -0.9290     1.6650     0.2460 c3         1 OS5       0.023700
     19 S            0.2410     0.4250    -0.3770 ss         1 OS5      -0.341200
     20 C3           1.7660     1.0320     0.3980 c3         1 OS5       0.015700
     21 C2           2.9380     0.1370     0.0290 c3         1 OS5      -0.064400
     22 C1           4.2390     0.6420     0.6590 c3         1 OS5      -0.089700
     23 C            5.4040    -0.2240     0.3300 cc         1 OS5       0.268600
     24 N5           5.5920    -1.4430     0.8830 nc         1 OS5      -0.359000
     25 N7           6.6570    -1.9770     0.3920 nd         1 OS5      -0.207800
     26 N6           7.1700    -1.1320    -0.4820 na         1 OS5       0.105400
     27 C16          6.4290    -0.0120    -0.5570 cd         1 OS5      -0.237600
     28 C17          8.4270    -1.4220    -1.1440 c3         1 OS5       0.097600
     29 C18          9.5780    -0.6940    -0.5010 ca         1 OS5      -0.126300
     30 C23          9.9440    -0.9810     0.8120 ca         1 OS5      -0.106000
     31 C22         10.9990    -0.3070     1.4090 ca         1 OS5      -0.130000
     32 C21         11.7000     0.6610     0.6980 ca         1 OS5      -0.113000
     33 C20         11.3400     0.9510    -0.6090 ca         1 OS5      -0.130000
     34 C19         10.2800     0.2760    -1.2050 ca         1 OS5      -0.106000
     35 H1          -4.3870     3.8430    -0.5240 ho         1 OS5       0.399000
     36 H2          -2.9140     3.0660     1.0000 h1         1 OS5       0.025700
     37 H3          -4.2460     1.4920     2.0210 h1         1 OS5       0.036700
     38 H4          -5.4510     1.9560     0.8100 h1         1 OS5       0.036700
     39 H6          -4.7900    -1.7590     0.4620 h1         1 OS5       0.037700
     40 H7          -4.7560    -0.9340     2.0160 h1         1 OS5       0.037700
     41 H8          -7.8540    -1.1720    -3.4140 h5         1 OS5       0.045100
     42 H9         -11.6510    -0.3170    -1.2680 hn         1 OS5       0.425300
     43 H10        -11.2990    -0.1120     0.3830 hn         1 OS5       0.425300
     44 H11         -9.4300     0.0850     2.0550 hn         1 OS5       0.298700
     45 H12         -7.1380    -0.1380     2.9630 h4         1 OS5       0.162000
     46 H13         -2.4700    -0.2130     1.2660 h1         1 OS5       0.045200
     47 H14         -2.6390    -0.8210    -0.3900 h1         1 OS5       0.045200
     48 H15         -2.3540     1.3630    -1.3250 hc         1 OS5       0.098700
     49 H16         -0.6190     2.6530    -0.1020 h1         1 OS5       0.055700
     50 H17         -0.8920     1.6680     1.3390 h1         1 OS5       0.055700
     51 H18          1.9490     2.0570     0.0670 h1         1 OS5       0.053200
     52 H19          1.6290     1.0520     1.4820 h1         1 OS5       0.053200
     53 H20          2.7460    -0.8860     0.3620 hc         1 OS5       0.061700
     54 H21          3.0520     0.1020    -1.0570 hc         1 OS5       0.061700
     55 H22          4.4390     1.6600     0.3200 hc         1 OS5       0.050700
     56 H23          4.1190     0.6910     1.7450 hc         1 OS5       0.050700
     57 H24          6.6700     0.8110    -1.2080 h4         1 OS5       0.185000
     58 H25          8.5640    -2.5010    -1.0940 h1         1 OS5       0.077700
     59 H26          8.3330    -1.1490    -2.1950 h1         1 OS5       0.077700
     60 H27          9.4030    -1.7340     1.3730 ha         1 OS5       0.137500
     61 H28         11.2760    -0.5380     2.4290 ha         1 OS5       0.135500
     62 H29         12.5240     1.1850     1.1650 ha         1 OS5       0.134000
     63 H30         11.8800     1.7030    -1.1700 ha         1 OS5       0.135500
     64 H31         10.0010     0.5070    -2.2260 ha         1 OS5       0.137500
@<TRIPOS>BOND
     1     1     2 1   
     2     1    35 1   
     3     2     3 1   
     4     2    17 1   
     5     2    36 1   
     6     3     4 1   
     7     3    37 1   
     8     3    38 1   
     9     4     5 1   
    10     4    16 1   
    11     5     6 1   
    12     5    39 1   
    13     5    40 1   
    14     6     7 1   
    15     6    15 2   
    16     7     8 ar  
    17     7    13 ar  
    18     8     9 ar  
    19     9    10 ar  
    20     9    41 1   
    21    10    11 ar  
    22    11    12 1   
    23    11    13 ar  
    24    12    42 1   
    25    12    43 1   
    26    13    14 1   
    27    14    15 1   
    28    14    44 1   
    29    15    45 1   
    30    16    17 1   
    31    16    46 1   
    32    16    47 1   
    33    17    18 1   
    34    17    48 1   
    35    18    19 1   
    36    18    49 1   
    37    18    50 1   
    38    19    20 1   
    39    20    21 1   
    40    20    51 1   
    41    20    52 1   
    42    21    22 1   
    43    21    53 1   
    44    21    54 1   
    45    22    23 1   
    46    22    55 1   
    47    22    56 1   
    48    23    24 1   
    49    23    27 2   
    50    24    25 2   
    51    25    26 1   
    52    26    27 1   
    53    26    28 1   
    54    27    57 1   
    55    28    29 1   
    56    28    58 1   
    57    28    59 1   
    58    29    30 ar  
    59    29    34 ar  
    60    30    31 ar  
    61    30    60 1   
    62    31    32 ar  
    63    31    61 1   
    64    32    33 ar  
    65    32    62 1   
    66    33    34 ar  
    67    33    63 1   
    68    34    64 1   
@<TRIPOS>SUBSTRUCTURE
     1 OS5         1 TEMP              0 ****  ****    0 ROOT
