@<TRIPOS>MOLECULE
OS6
   63    66     1     0     0
SMALL
abcg2


@<TRIPOS>ATOM
      1 O            3.3710     2.6970     1.7010 oh         1 OS6      -0.641000
      2 C15          2.7120     2.3870     0.4920 c5         1 OS6       0.172300
      3 C14          3.5970     1.6260    -0.4890 c5         1 OS6       0.123800
      4 N            3.4660     0.2510    -0.0600 n3         1 OS6      -0.692600
      5 C7           4.0380    -0.7260    -0.9610 c3         1 OS6       0.253000
      6 C8           5.5180    -0.5940    -1.0810 cc         1 OS6      -0.259000
      7 C13          6.4930    -0.9450    -0.1050 ca         1 OS6       0.141800
      8 N4           6.3430    -1.4950     1.1170 nb         1 OS6      -0.149000
      9 C12          7.4740    -1.7090     1.7470 ca         1 OS6       0.135900
     10 N3           8.7180    -1.4470     1.3310 nb         1 OS6      -0.271000
     11 C11          8.8920    -0.9080     0.1280 ca         1 OS6       0.387900
     12 N2          10.1480    -0.6860    -0.3090 nv         1 OS6      -1.077900
     13 C10          7.7490    -0.6390    -0.6410 ca         1 OS6      -0.221200
     14 N1           7.5570    -0.1190    -1.8890 na         1 OS6      -0.203700
     15 C9           6.2230    -0.0950    -2.1470 cd         1 OS6      -0.148100
     16 C6           2.0440     0.0700     0.1490 c5         1 OS6       0.164800
     17 C5           1.5800     1.3840     0.8000 c5         1 OS6      -0.058700
     18 C4           0.2350     1.8600     0.2760 c3         1 OS6       0.067600
     19 S           -1.0520     0.6550     0.7070 ss         1 OS6      -0.435000
     20 C3          -2.4770     1.3790    -0.1520 c3         1 OS6       0.063600
     21 C2          -3.7230     0.5580     0.1380 c3         1 OS6      -0.064400
     22 C1          -4.9430     1.1090    -0.6030 c3         1 OS6      -0.086700
     23 C           -6.1780     0.3260    -0.3200 cc         1 OS6       0.204300
     24 N5          -6.2910    -0.9930    -0.5940 nc         1 OS6      -0.360000
     25 N7          -7.4540    -1.4100    -0.2220 nd         1 OS6      -0.203800
     26 N6          -8.1100    -0.3880     0.2900 na         1 OS6       0.125800
     27 C16         -7.3580     0.7260     0.2550 cd         1 OS6      -0.214000
     28 C17         -9.4640    -0.5520     0.7890 c3         1 OS6       0.083600
     29 C18        -10.4460    -0.9360    -0.3070 c3         1 OS6      -0.095400
     30 C20        -12.8590    -1.4990    -0.8270 c3         1 OS6      -0.089100
     31 C19        -11.8600    -1.0810     0.2420 c3         1 OS6      -0.074400
     32 H1           4.1180     3.2690     1.4960 ho         1 OS6       0.439000
     33 H2           2.3210     3.2990     0.0230 h1         1 OS6       0.028700
     34 H3           3.2180     1.7800    -1.5160 h1         1 OS6       0.034700
     35 H4           4.6360     1.9640    -0.4770 h1         1 OS6       0.034700
     36 H6           3.7910    -1.7200    -0.5760 h1         1 OS6       0.039200
     37 H7           3.5840    -0.6610    -1.9650 h1         1 OS6       0.039200
     38 H8           7.4040    -2.1540     2.7350 h5         1 OS6       0.045100
     39 H9          10.8980    -0.7620     0.3580 hn         1 OS6       0.483000
     40 H10         10.3180    -0.0780    -1.0910 hn         1 OS6       0.483000
     41 H11          8.2670     0.1800    -2.5360 hn         1 OS6       0.349000
     42 H12          5.8570     0.2810    -3.0900 h4         1 OS6       0.213000
     43 H13          1.5080    -0.0810    -0.8060 h1         1 OS6       0.046200
     44 H14          1.8470    -0.8070     0.7680 h1         1 OS6       0.046200
     45 H15          1.5130     1.2670     1.8850 hc         1 OS6       0.096700
     46 H16         -0.0230     2.8300     0.7080 h1         1 OS6       0.055700
     47 H17          0.2690     1.9730    -0.8110 h1         1 OS6       0.055700
     48 H18         -2.6130     2.4100     0.1850 h1         1 OS6       0.052700
     49 H19         -2.2740     1.4020    -1.2250 h1         1 OS6       0.052700
     50 H20         -3.5600    -0.4810    -0.1590 hc         1 OS6       0.064700
     51 H21         -3.9200     0.5540     1.2130 hc         1 OS6       0.064700
     52 H22         -5.1090     2.1510    -0.3210 hc         1 OS6       0.048200
     53 H23         -4.7440     1.1070    -1.6780 hc         1 OS6       0.048200
     54 H24         -7.7020     1.6770     0.6250 h4         1 OS6       0.164000
     55 H25         -9.4470    -1.3060     1.5770 h1         1 OS6       0.063200
     56 H26         -9.7470     0.3940     1.2480 h1         1 OS6       0.063200
     57 H27        -10.4290    -0.1770    -1.0940 hc         1 OS6       0.061200
     58 H28        -10.1300    -1.8770    -0.7640 hc         1 OS6       0.061200
     59 H29        -13.8630    -1.5940    -0.4140 hc         1 OS6       0.036033
     60 H30        -12.9020    -0.7680    -1.6370 hc         1 OS6       0.036033
     61 H31        -12.5890    -2.4610    -1.2660 hc         1 OS6       0.036033
     62 H32        -11.8630    -1.8160     1.0520 hc         1 OS6       0.038700
     63 H33        -12.1770    -0.1330     0.6880 hc         1 OS6       0.038700
@<TRIPOS>BOND
     1     1     2 1   
     2     1    32 1   
     3     2     3 1   
     4     2    17 1   
     5     2    33 1   
     6     3     4 1   
     7     3    34 1   
     8     3    35 1   
     9     4     5 1   
    10     4    16 1   
    11     5     6 1   
    12     5    36 1   
    13     5    37 1   
    14     6     7 1   
    15     6    15 2   
    16     7     8 ar  
    17     7    13 ar  
    18     8     9 ar  
    19     9    10 ar  
    20     9    38 1   
    21    10    11 ar  
    22    11    12 1   
    23    11    13 ar  
    24    12    39 1   
    25    12    40 1   
    26    13    14 1   
    27    14    15 1   
    28    14    41 1   
    29    15    42 1   
    30    16    17 1   
    31    16    43 1   
    32    16    44 1   
    33    17    18 1   
    34    17    45 1   
    35    18    19 1   
    36    18    46 1   
    37    18    47 1   
    38    19    20 1   
    39    20    21 1   
    40    20    48 1   
    41    20    49 1   
    42    21    22 1   
    43    21    50 1   
    44    21    51 1   
    45    22    23 1   
    46    22    52 1   
    47    22    53 1   
    48    23    24 1   
    49    23    27 2   
    50    24    25 2   
    51    25    26 1   
    52    26    27 1   
    53    26    28 1   
    54    27    54 1   
    55    28    29 1   
    56    28    55 1   
    57    28    56 1   
    58    29    31 1   
    59    29    57 1   
    60    29    58 1   
    61    30    31 1   
    62    30    59 1   
    63    30    60 1   
    64    30    61 1   
    65    31    62 1   
    66    31    63 1   
@<TRIPOS>SUBSTRUCTURE
     1 OS6         1 TEMP              0 ****  ****    0 ROOT
