@<TRIPOS>MOLECULE
OS6
   63    66     1     0     0
SMALL
No Charge or Current Charge


@<TRIPOS>ATOM
      1 O            3.5400     2.4850     1.6120 oh         1 OS6      -0.641000
      2 C15          2.6710     2.2340     0.5080 c5         1 OS6       0.172300
      3 C14          3.4070     1.4040    -0.5790 c5         1 OS6       0.123800
      4 N            3.5330     0.1250     0.1550 n3         1 OS6      -0.692600
      5 C7           4.2240    -0.9710    -0.5510 c3         1 OS6       0.253000
      6 C8           5.6550    -0.6290    -0.8650 cc         1 OS6      -0.259000
      7 C13          6.7490    -0.6180     0.0600 ca         1 OS6       0.141800
      8 N4           6.7380    -0.9090     1.3740 nb         1 OS6      -0.149000
      9 C12          7.9470    -0.8090     1.9790 ca         1 OS6       0.135900
     10 N3           9.1230    -0.4540     1.3960 nb         1 OS6      -0.271000
     11 C11          9.0800    -0.1740     0.0800 ca         1 OS6       0.387900
     12 N2          10.2590     0.1860    -0.4950 nv         1 OS6      -1.077900
     13 C10          7.8710    -0.2530    -0.6250 ca         1 OS6      -0.221200
     14 N1           7.5840    -0.0240    -1.9650 na         1 OS6      -0.203700
     15 C9           6.1930    -0.2620    -2.1000 cd         1 OS6      -0.148100
     16 C6           2.1380    -0.1680     0.5680 c5         1 OS6       0.164800
     17 C5           1.5330     1.2400     0.9100 c5         1 OS6      -0.058700
     18 C4           0.1970     1.5150     0.1830 c3         1 OS6       0.067600
     19 S           -1.1400     0.3490     0.7100 ss         1 OS6      -0.435000
     20 C3          -2.5230     0.9520    -0.3560 c3         1 OS6       0.063600
     21 C2          -3.7940     0.1180    -0.1090 c3         1 OS6      -0.064400
     22 C1          -4.9920     0.5750    -0.9710 c3         1 OS6      -0.086700
     23 C           -6.2370    -0.2310    -0.7190 cc         1 OS6       0.204300
     24 N5          -6.4150    -1.4640    -1.2790 nc         1 OS6      -0.360000
     25 N7          -7.5780    -1.9280    -0.8940 nd         1 OS6      -0.203800
     26 N6          -8.1450    -0.9800    -0.0800 na         1 OS6       0.125800
     27 C16         -7.3100     0.1070     0.0420 cd         1 OS6      -0.214000
     28 C17         -9.4680    -1.1690     0.5320 c3         1 OS6       0.083600
     29 C18        -10.6020    -0.4730    -0.2520 c3         1 OS6      -0.095400
     30 C20        -13.1230     0.0240    -0.3880 c3         1 OS6      -0.089100
     31 C19        -11.9910    -0.6700     0.3940 c3         1 OS6      -0.074400
     32 H1           4.0520     1.6470     1.6800 ho         1 OS6       0.439000
     33 H2           2.2780     3.1800     0.1120 h1         1 OS6       0.028700
     34 H3           2.8110     1.3010    -1.4970 h1         1 OS6       0.034700
     35 H4           4.3810     1.8400    -0.8410 h1         1 OS6       0.034700
     36 H6           4.2110    -1.8780     0.0690 h1         1 OS6       0.039200
     37 H7           3.6990    -1.2080    -1.4860 h1         1 OS6       0.039200
     38 H8           7.9790    -1.0370     3.0430 h5         1 OS6       0.045100
     39 H9          11.0410     0.4040     0.1180 hn         1 OS6       0.483000
     40 H10         10.2440     0.6640    -1.3920 hn         1 OS6       0.483000
     41 H11          8.2320     0.2430    -2.7020 hn         1 OS6       0.349000
     42 H12          5.6890    -0.1540    -3.0580 h4         1 OS6       0.213000
     43 H13          1.5810    -0.6430    -0.2530 h1         1 OS6       0.046200
     44 H14          2.1030    -0.8500     1.4280 h1         1 OS6       0.046200
     45 H15          1.3200     1.3170     1.9810 hc         1 OS6       0.096700
     46 H16         -0.1280     2.5410     0.4000 h1         1 OS6       0.055700
     47 H17          0.3420     1.4250    -0.9020 h1         1 OS6       0.055700
     48 H18         -2.7190     2.0080    -0.1270 h1         1 OS6       0.052700
     49 H19         -2.2250     0.8730    -1.4100 h1         1 OS6       0.052700
     50 H20         -3.5780    -0.9360    -0.3190 hc         1 OS6       0.064700
     51 H21         -4.0670     0.1850     0.9520 hc         1 OS6       0.064700
     52 H22         -5.1970     1.6330    -0.7680 hc         1 OS6       0.048200
     53 H23         -4.7200     0.5100    -2.0320 hc         1 OS6       0.048200
     54 H24         -7.5340     0.9880     0.6300 h4         1 OS6       0.164000
     55 H25         -9.6750    -2.2450     0.5980 h1         1 OS6       0.063200
     56 H26         -9.4340    -0.7720     1.5540 h1         1 OS6       0.063200
     57 H27        -10.3830     0.6000    -0.3230 hc         1 OS6       0.061200
     58 H28        -10.6200    -0.8650    -1.2770 hc         1 OS6       0.061200
     59 H29        -14.0870    -0.1430     0.1070 hc         1 OS6       0.036033
     60 H30        -12.9500     1.1050    -0.4450 hc         1 OS6       0.036033
     61 H31        -13.1890    -0.3710    -1.4090 hc         1 OS6       0.036033
     62 H32        -12.2110    -1.7420     0.4640 hc         1 OS6       0.038700
     63 H33        -11.9740    -0.2780     1.4190 hc         1 OS6       0.038700
@<TRIPOS>BOND
     1     1     2 1   
     2     1    32 1   
     3     2     3 1   
     4     2    17 1   
     5     2    33 1   
     6     3     4 1   
     7     3    34 1   
     8     3    35 1   
     9     4     5 1   
    10     4    16 1   
    11     5     6 1   
    12     5    36 1   
    13     5    37 1   
    14     6     7 1   
    15     6    15 2   
    16     7     8 ar  
    17     7    13 ar  
    18     8     9 ar  
    19     9    10 ar  
    20     9    38 1   
    21    10    11 ar  
    22    11    12 1   
    23    11    13 ar  
    24    12    39 1   
    25    12    40 1   
    26    13    14 1   
    27    14    15 1   
    28    14    41 1   
    29    15    42 1   
    30    16    17 1   
    31    16    43 1   
    32    16    44 1   
    33    17    18 1   
    34    17    45 1   
    35    18    19 1   
    36    18    46 1   
    37    18    47 1   
    38    19    20 1   
    39    20    21 1   
    40    20    48 1   
    41    20    49 1   
    42    21    22 1   
    43    21    50 1   
    44    21    51 1   
    45    22    23 1   
    46    22    52 1   
    47    22    53 1   
    48    23    24 1   
    49    23    27 2   
    50    24    25 2   
    51    25    26 1   
    52    26    27 1   
    53    26    28 1   
    54    27    54 1   
    55    28    29 1   
    56    28    55 1   
    57    28    56 1   
    58    29    31 1   
    59    29    57 1   
    60    29    58 1   
    61    30    31 1   
    62    30    59 1   
    63    30    60 1   
    64    30    61 1   
    65    31    62 1   
    66    31    63 1   
@<TRIPOS>SUBSTRUCTURE
     1 OS6         1 TEMP              0 ****  ****    0 ROOT
