@<TRIPOS>MOLECULE
OS7
   50    53     1     0     0
SMALL
abcg2


@<TRIPOS>ATOM
      1 C10         12.5730     1.2800    58.7150 ca         1 OS7       0.326000
      2 C11         14.6890     4.2080    57.5670 cp         1 OS7      -0.042000
      3 C13         15.3300     6.3580    56.6770 ca         1 OS7      -0.131000
      4 C14         16.4120     5.7750    56.0250 ca         1 OS7       0.104100
      5 C15         16.6560     4.4080    56.1370 ca         1 OS7      -0.096300
      6 C16         15.7840     3.6500    56.9140 ca         1 OS7      -0.065000
      7 C17         17.8290     3.7310    55.4750 c3         1 OS7       0.192100
      8 C20         18.2820     7.1770    55.9520 c3         1 OS7       0.112300
      9 C22         19.1360     7.9690    55.0020 ca         1 OS7       0.341300
     10 C23         18.9090     8.0160    53.6330 ca         1 OS7      -0.135000
     11 C02         11.4800    -0.7180    58.9400 ca         1 OS7       0.621900
     12 C03         10.8750    -0.2890    60.1610 ca         1 OS7      -0.215000
     13 C04         11.1350     0.9520    60.6530 ca         1 OS7       0.007700
     14 C05         12.0190     1.7960    59.9120 ca         1 OS7      -0.123000
     15 C06         12.3610     3.1020    60.3120 ca         1 OS7      -0.076000
     16 C07         13.2120     3.8720    59.5630 ca         1 OS7      -0.122000
     17 C08         13.7730     3.3710    58.3670 cp         1 OS7      -0.012000
     18 C09         13.4470     2.0940    57.9650 ca         1 OS7      -0.092000
     19 C12         14.4760     5.5830    57.4400 ca         1 OS7      -0.087000
     20 C24         19.7650     8.7760    52.8480 ca         1 OS7      -0.077000
     21 C25         20.8110     9.4560    53.4510 ca         1 OS7      -0.165000
     22 C26         20.9510     9.3420    54.8270 ca         1 OS7       0.340900
     23 C4A         10.5190     1.4220    61.9320 c3         1 OS7      -0.056800
     24 N01         12.2990     0.0380    58.2480 nb         1 OS7      -0.761000
     25 N02         11.1700    -1.9450    58.4530 nv         1 OS7      -1.072900
     26 N18         18.7100     3.1450    56.4780 n8         1 OS7      -0.995200
     27 N21         20.1380     8.6210    55.5850 nb         1 OS7      -0.681000
     28 O19         17.2190     6.5620    55.2520 os         1 OS7      -0.374100
     29 H1          15.1500     7.4200    56.5690 ha         1 OS7       0.124000
     30 H2          15.9860     2.5910    57.0200 ha         1 OS7       0.132000
     31 H3          17.4480     2.9160    54.8540 h1         1 OS7       0.043700
     32 H4          18.3290     4.4260    54.7930 h1         1 OS7       0.043700
     33 H5          18.9070     6.4270    56.4520 h1         1 OS7       0.050700
     34 H6          17.8980     7.8430    56.7340 h1         1 OS7       0.050700
     35 H7          18.0870     7.4790    53.1830 ha         1 OS7       0.141000
     36 H8          10.2070    -0.9610    60.6860 ha         1 OS7       0.117000
     37 H9          11.9540     3.5070    61.2300 ha         1 OS7       0.111000
     38 H10         13.4730     4.8650    59.9070 ha         1 OS7       0.114000
     39 H11         13.8400     1.6870    57.0410 ha         1 OS7       0.131000
     40 H12         13.6250     6.0510    57.9180 ha         1 OS7       0.118000
     41 H13         19.6140     8.8340    51.7780 ha         1 OS7       0.119000
     42 H14         21.5010    10.0580    52.8780 ha         1 OS7       0.124000
     43 H15         21.7560     9.8590    55.3390 h4         1 OS7       0.019100
     44 H16          9.9280     2.3270    61.7780 hc         1 OS7       0.048367
     45 H17          9.8650     0.6630    62.3570 hc         1 OS7       0.048367
     46 H18         11.2840     1.6610    62.6720 hc         1 OS7       0.048367
     47 H19         11.7450    -2.3170    57.7150 hn         1 OS7       0.479500
     48 H20         10.7620    -2.6260    59.0700 hn         1 OS7       0.479500
     49 H21         19.4560     2.6460    56.0090 hn         1 OS7       0.394000
     50 H22         19.1610     3.8830    57.0050 hn         1 OS7       0.394000
@<TRIPOS>BOND
     1     1    14 ar  
     2     1    18 ar  
     3     1    24 ar  
     4     2     6 ar  
     5     2    17 1   
     6     2    19 ar  
     7     3     4 ar  
     8     3    19 ar  
     9     3    29 1   
    10     4     5 ar  
    11     4    28 1   
    12     5     6 ar  
    13     5     7 1   
    14     6    30 1   
    15     7    26 1   
    16     7    31 1   
    17     7    32 1   
    18     8     9 1   
    19     8    28 1   
    20     8    33 1   
    21     8    34 1   
    22     9    10 ar  
    23     9    27 ar  
    24    10    20 ar  
    25    10    35 1   
    26    11    12 ar  
    27    11    24 ar  
    28    11    25 1   
    29    12    13 ar  
    30    12    36 1   
    31    13    14 ar  
    32    13    23 1   
    33    14    15 ar  
    34    15    16 ar  
    35    15    37 1   
    36    16    17 ar  
    37    16    38 1   
    38    17    18 ar  
    39    18    39 1   
    40    19    40 1   
    41    20    21 ar  
    42    20    41 1   
    43    21    22 ar  
    44    21    42 1   
    45    22    27 ar  
    46    22    43 1   
    47    23    44 1   
    48    23    45 1   
    49    23    46 1   
    50    25    47 1   
    51    25    48 1   
    52    26    49 1   
    53    26    50 1   
@<TRIPOS>SUBSTRUCTURE
     1 OS7         1 TEMP              0 ****  ****    0 ROOT
