@<TRIPOS>MOLECULE
OS7
   50    53     1     0     0
SMALL
No Charge or Current Charge


@<TRIPOS>ATOM
      1 C10         12.4000     1.2990    58.6880 ca         1 OS7       0.326000
      2 C11         14.9100     4.0820    57.8400 cp         1 OS7      -0.042000
      3 C13         15.8730     6.2700    57.2770 ca         1 OS7      -0.131000
      4 C14         16.8130     5.6590    56.4180 ca         1 OS7       0.104100
      5 C15         16.8050     4.2540    56.2670 ca         1 OS7      -0.096300
      6 C16         15.8590     3.4840    56.9750 ca         1 OS7      -0.065000
      7 C17         17.7950     3.5450    55.3470 c3         1 OS7       0.192100
      8 C20         17.8210     7.8400    55.7990 c3         1 OS7       0.112300
      9 C22         18.9380     8.3580    54.8900 ca         1 OS7       0.341300
     10 C23         18.9360     8.0580    53.5130 ca         1 OS7      -0.135000
     11 C02         11.0120    -0.5200    58.7330 ca         1 OS7       0.621900
     12 C03         10.5590    -0.2550    60.0230 ca         1 OS7      -0.215000
     13 C04         11.0620     0.8720    60.6910 ca         1 OS7       0.007700
     14 C05         12.0080     1.6720    60.0030 ca         1 OS7      -0.123000
     15 C06         12.5670     2.8250    60.5960 ca         1 OS7      -0.076000
     16 C07         13.5030     3.6010    59.8940 ca         1 OS7      -0.122000
     17 C08         13.9110     3.2520    58.5870 cp         1 OS7      -0.012000
     18 C09         13.3410     2.0930    58.0070 ca         1 OS7      -0.092000
     19 C12         14.9380     5.4900    57.9760 ca         1 OS7      -0.087000
     20 C24         19.9670     8.5500    52.6970 ca         1 OS7      -0.077000
     21 C25         20.9670     9.3320    53.2970 ca         1 OS7      -0.165000
     22 C26         20.8990     9.5910    54.6770 ca         1 OS7       0.340900
     23 C4A         10.5810     1.1890    62.1040 c3         1 OS7      -0.056800
     24 N01         11.8960     0.2050    58.0700 nb         1 OS7      -0.761000
     25 N02         10.6130    -1.5640    58.0050 nv         1 OS7      -1.072900
     26 N18         18.9120     2.9500    56.1070 n8         1 OS7      -0.995200
     27 N21         19.9060     9.1180    55.4660 nb         1 OS7      -0.681000
     28 O19         17.7460     6.3990    55.7150 os         1 OS7      -0.374100
     29 H1          15.8500     7.3470    57.4140 ha         1 OS7       0.124000
     30 H2          15.8750     2.4030    56.8620 ha         1 OS7       0.132000
     31 H3          17.2760     2.7440    54.8010 h1         1 OS7       0.043700
     32 H4          18.2010     4.2420    54.6010 h1         1 OS7       0.043700
     33 H5          18.0150     8.1530    56.8330 h1         1 OS7       0.050700
     34 H6          16.8750     8.2930    55.4780 h1         1 OS7       0.050700
     35 H7          18.1420     7.4480    53.0900 ha         1 OS7       0.141000
     36 H8           9.8310    -0.9090    60.4920 ha         1 OS7       0.117000
     37 H9          12.2890     3.1340    61.6000 ha         1 OS7       0.111000
     38 H10         13.9260     4.4760    60.3800 ha         1 OS7       0.114000
     39 H11         13.6220     1.8060    56.9990 ha         1 OS7       0.131000
     40 H12         14.2170     5.9880    58.6210 ha         1 OS7       0.118000
     41 H13         19.9900     8.3330    51.6310 ha         1 OS7       0.119000
     42 H14         21.7860     9.7360    52.7080 ha         1 OS7       0.124000
     43 H15         21.6620    10.1960    55.1660 h4         1 OS7       0.019100
     44 H16         10.0980     2.1730    62.1450 hc         1 OS7       0.048367
     45 H17          9.8500     0.4520    62.4590 hc         1 OS7       0.048367
     46 H18         11.4160     1.1890    62.8140 hc         1 OS7       0.048367
     47 H19         11.2000    -1.7570    57.2030 hn         1 OS7       0.479500
     48 H20         10.2530    -2.3700    58.5040 hn         1 OS7       0.479500
     49 H21         19.5920     2.5570    55.4460 hn         1 OS7       0.394000
     50 H22         19.4290     3.7100    56.5650 hn         1 OS7       0.394000
@<TRIPOS>BOND
     1     1    14 ar  
     2     1    18 ar  
     3     1    24 ar  
     4     2     6 ar  
     5     2    17 1   
     6     2    19 ar  
     7     3     4 ar  
     8     3    19 ar  
     9     3    29 1   
    10     4     5 ar  
    11     4    28 1   
    12     5     6 ar  
    13     5     7 1   
    14     6    30 1   
    15     7    26 1   
    16     7    31 1   
    17     7    32 1   
    18     8     9 1   
    19     8    28 1   
    20     8    33 1   
    21     8    34 1   
    22     9    10 ar  
    23     9    27 ar  
    24    10    20 ar  
    25    10    35 1   
    26    11    12 ar  
    27    11    24 ar  
    28    11    25 1   
    29    12    13 ar  
    30    12    36 1   
    31    13    14 ar  
    32    13    23 1   
    33    14    15 ar  
    34    15    16 ar  
    35    15    37 1   
    36    16    17 ar  
    37    16    38 1   
    38    17    18 ar  
    39    18    39 1   
    40    19    40 1   
    41    20    21 ar  
    42    20    41 1   
    43    21    22 ar  
    44    21    42 1   
    45    22    27 ar  
    46    22    43 1   
    47    23    44 1   
    48    23    45 1   
    49    23    46 1   
    50    25    47 1   
    51    25    48 1   
    52    26    49 1   
    53    26    50 1   
@<TRIPOS>SUBSTRUCTURE
     1 OS7         1 TEMP              0 ****  ****    0 ROOT
