@<TRIPOS>MOLECULE
OS8
   61    64     1     0     0
SMALL
No Charge or Current Charge


@<TRIPOS>ATOM
      1 C4          26.1590    34.8820    26.6880 c          1 OS8       0.584000
      2 C14         26.7820    44.9050    21.7040 c6         1 OS8       0.224800
      3 C5          26.2150    37.3690    27.0740 ca         1 OS8      -0.060000
      4 C6          25.9300    38.3040    28.0800 ca         1 OS8      -0.105000
      5 C11         29.5060    41.4920    23.6130 c3         1 OS8       0.113000
      6 C7          26.4070    39.6150    27.9760 ca         1 OS8      -0.122000
      7 C8          27.1530    40.0070    26.8580 ca         1 OS8      -0.087000
      8 C9          27.4410    39.0920    25.8120 ca         1 OS8      -0.204600
      9 C10         28.1920    39.5700    24.5810 c          1 OS8       0.612700
     10 C12         28.4730    42.1510    22.6760 c3         1 OS8      -0.135400
     11 C13         27.5720    43.1850    23.3810 c3         1 OS8       0.227800
     12 N1          25.6890    36.0590    27.2300 ns         1 OS8      -0.149000
     13 N2          28.8720    40.7610    24.7140 ns         1 OS8      -0.502900
     14 C3          27.6410    34.8890    26.3300 c3         1 OS8      -0.173400
     15 N3          26.4870    43.6930    22.5110 nh         1 OS8      -0.822400
     16 C1          27.3730    34.6620    23.7860 c3         1 OS8      -0.095100
     17 C2          27.8540    35.5390    24.9590 c3         1 OS8       0.223500
     18 C15         25.5700    45.8530    21.6870 c6         1 OS8      -0.086400
     19 C16         24.3320    45.1270    21.1330 c6         1 OS8      -0.014100
     20 C17         24.1270    43.7610    21.7930 ca         1 OS8      -0.189300
     21 C18         22.8550    43.1660    21.7240 ca         1 OS8      -0.039000
     22 C19         22.6300    41.9140    22.3090 ca         1 OS8      -0.192000
     23 C20         23.6700    41.2410    22.9600 ca         1 OS8       0.181100
     24 C21         24.9490    41.8280    23.0270 ca         1 OS8      -0.270000
     25 C22         25.1930    43.0930    22.4500 ca         1 OS8       0.370000
     26 O1          23.3860    40.0080    23.5130 os         1 OS8      -0.344100
     27 C23         24.3680    39.2430    24.2340 c3         1 OS8       0.143900
     28 O2          28.1690    38.9820    23.5080 o          1 OS8      -0.620100
     29 C24         26.9760    37.7540    25.9310 ca         1 OS8       0.309000
     30 N4          27.1980    36.8490    24.8800 nu         1 OS8      -0.932200
     31 O3          25.4490    33.8920    26.5540 o          1 OS8      -0.548000
     32 H2          27.6480    45.4480    22.1130 h1         1 OS8       0.033700
     33 H3          25.3420    38.0130    28.9480 ha         1 OS8       0.122000
     34 H4          30.1320    40.7960    23.0380 h1         1 OS8       0.050700
     35 H5          30.1630    42.2640    24.0360 h1         1 OS8       0.050700
     36 H6          26.1840    40.3360    28.7600 ha         1 OS8       0.124000
     37 H7          27.4710    41.0450    26.8060 ha         1 OS8       0.114000
     38 H8          27.8490    41.3730    22.2220 hc         1 OS8       0.065700
     39 H9          29.0040    42.6440    21.8530 hc         1 OS8       0.065700
     40 H10         28.2000    44.0200    23.7220 h1         1 OS8       0.044700
     41 H11         27.1440    42.7510    24.2940 h1         1 OS8       0.044700
     42 H12         24.7570    36.0140    27.6210 hn         1 OS8       0.159000
     43 H13         28.8920    41.1710    25.6380 hn         1 OS8       0.319500
     44 H14         28.0380    33.8690    26.3270 hc         1 OS8       0.072700
     45 H15         28.1890    35.5060    27.0520 hc         1 OS8       0.072700
     46 H16         27.8640    33.6830    23.8110 hc         1 OS8       0.049367
     47 H17         26.2890    34.5060    23.8260 hc         1 OS8       0.049367
     48 H18         27.6150    35.1360    22.8270 hc         1 OS8       0.049367
     49 H19         28.9370    35.6860    24.8400 h1         1 OS8       0.031700
     50 H20         25.7930    46.7410    21.0810 hc         1 OS8       0.050200
     51 H21         25.3680    46.2070    22.7080 hc         1 OS8       0.050200
     52 H22         23.4440    45.7580    21.2740 hc         1 OS8       0.044200
     53 H23         24.4450    44.9870    20.0490 hc         1 OS8       0.044200
     54 H24         22.0380    43.6760    21.2170 ha         1 OS8       0.106000
     55 H25         21.6450    41.4590    22.2550 ha         1 OS8       0.127000
     56 H26         25.7540    41.2970    23.5150 ha         1 OS8       0.115000
     57 H27         23.9320    38.3020    24.5920 h1         1 OS8       0.042700
     58 H28         25.2220    38.9970    23.5900 h1         1 OS8       0.042700
     59 H29         24.7310    39.8010    25.1060 h1         1 OS8       0.042700
     60 H30         27.4750    37.3700    24.0370 hn         1 OS8       0.485000
     61 H1          27.0360    44.6140    20.6740 h1         1 OS8       0.033700
@<TRIPOS>BOND
     1     1    12 1   
     2     1    14 1   
     3     1    31 2   
     4     2    15 1   
     5     2    18 1   
     6     2    32 1   
     7     2    61 1   
     8     3     4 ar  
     9     3    12 1   
    10     3    29 ar  
    11     4     6 ar  
    12     4    33 1   
    13     5    10 1   
    14     5    13 1   
    15     5    34 1   
    16     5    35 1   
    17     6     7 ar  
    18     6    36 1   
    19     7     8 ar  
    20     7    37 1   
    21     8     9 1   
    22     8    29 ar  
    23     9    13 1   
    24     9    28 2   
    25    10    11 1   
    26    10    38 1   
    27    10    39 1   
    28    11    15 1   
    29    11    40 1   
    30    11    41 1   
    31    12    42 1   
    32    13    43 1   
    33    14    17 1   
    34    14    44 1   
    35    14    45 1   
    36    15    25 1   
    37    16    17 1   
    38    16    46 1   
    39    16    47 1   
    40    16    48 1   
    41    17    30 1   
    42    17    49 1   
    43    18    19 1   
    44    18    50 1   
    45    18    51 1   
    46    19    20 1   
    47    19    52 1   
    48    19    53 1   
    49    20    21 ar  
    50    20    25 ar  
    51    21    22 ar  
    52    21    54 1   
    53    22    23 ar  
    54    22    55 1   
    55    23    24 ar  
    56    23    26 1   
    57    24    25 ar  
    58    24    56 1   
    59    26    27 1   
    60    27    57 1   
    61    27    58 1   
    62    27    59 1   
    63    29    30 1   
    64    30    60 1   
@<TRIPOS>SUBSTRUCTURE
     1 OS8         1 TEMP              0 ****  ****    0 ROOT
