@<TRIPOS>MOLECULE
OS8
   61    64     1     0     0
SMALL
abcg2


@<TRIPOS>ATOM
      1 C4          26.6960    34.7780    26.9690 c          1 OS8       0.584000
      2 C14         26.8960    44.9350    21.9840 c6         1 OS8       0.224800
      3 C5          26.2940    37.2060    27.0490 ca         1 OS8      -0.060000
      4 C6          25.9810    38.1330    28.0300 ca         1 OS8      -0.105000
      5 C11         29.2040    41.2220    23.4020 c3         1 OS8       0.113000
      6 C7          26.2270    39.4820    27.8310 ca         1 OS8      -0.122000
      7 C8          26.8280    39.8940    26.6570 ca         1 OS8      -0.087000
      8 C9          27.1780    38.9760    25.6660 ca         1 OS8      -0.204600
      9 C10         27.8050    39.4700    24.4030 c          1 OS8       0.612700
     10 C12         28.1950    42.0540    22.6160 c3         1 OS8      -0.135400
     11 C13         27.4650    43.0780    23.4840 c3         1 OS8       0.227800
     12 N1          25.9360    35.8650    27.2500 ns         1 OS8      -0.149000
     13 N2          28.6220    40.5240    24.5320 ns         1 OS8      -0.502900
     14 C3          28.0630    35.0800    26.4140 c3         1 OS8      -0.173400
     15 N3          26.4380    43.8190    22.7900 nh         1 OS8      -0.822400
     16 C1          27.6420    34.4690    23.9970 c3         1 OS8      -0.095100
     17 C2          28.0130    35.5750    24.9720 c3         1 OS8       0.223500
     18 C15         25.7800    45.9360    21.7620 c6         1 OS8      -0.086400
     19 C16         24.6280    45.2530    21.0470 c6         1 OS8      -0.014100
     20 C17         24.2740    43.9500    21.7150 ca         1 OS8      -0.189300
     21 C18         23.0150    43.3940    21.5320 ca         1 OS8      -0.039000
     22 C19         22.6240    42.1990    22.1090 ca         1 OS8      -0.192000
     23 C20         23.5400    41.5240    22.9140 ca         1 OS8       0.181100
     24 C21         24.8080    42.0520    23.1240 ca         1 OS8      -0.270000
     25 C22         25.1970    43.2740    22.5410 ca         1 OS8       0.370000
     26 O1          23.1160    40.3590    23.4490 os         1 OS8      -0.344100
     27 C23         23.9950    39.6160    24.2670 c3         1 OS8       0.143900
     28 O2          27.5740    38.9570    23.3090 o          1 OS8      -0.620100
     29 C24         26.8760    37.6090    25.8320 ca         1 OS8       0.309000
     30 N4          27.0520    36.6690    24.8260 nu         1 OS8      -0.932200
     31 O3          26.2890    33.6470    27.1780 o          1 OS8      -0.548000
     32 H2          27.7260    45.4070    22.5120 h1         1 OS8       0.033700
     33 H3          25.5170    37.7930    28.9480 ha         1 OS8       0.122000
     34 H4          29.6930    40.5090    22.7360 h1         1 OS8       0.050700
     35 H5          29.9860    41.8650    23.8060 h1         1 OS8       0.050700
     36 H6          25.9530    40.2040    28.5880 ha         1 OS8       0.124000
     37 H7          27.0050    40.9520    26.5060 ha         1 OS8       0.114000
     38 H8          27.4760    41.3960    22.1230 hc         1 OS8       0.065700
     39 H9          28.7390    42.5690    21.8190 hc         1 OS8       0.065700
     40 H10         28.1840    43.8010    23.8760 h1         1 OS8       0.044700
     41 H11         27.0350    42.5960    24.3650 h1         1 OS8       0.044700
     42 H12         25.0680    35.6900    27.7390 hn         1 OS8       0.159000
     43 H13         28.8680    40.8430    25.4540 hn         1 OS8       0.319500
     44 H14         28.6680    34.1750    26.4560 hc         1 OS8       0.072700
     45 H15         28.5550    35.8260    27.0450 hc         1 OS8       0.072700
     46 H16         28.3840    33.6710    24.0190 hc         1 OS8       0.049367
     47 H17         26.6670    34.0410    24.2320 hc         1 OS8       0.049367
     48 H18         27.6010    34.8540    22.9770 hc         1 OS8       0.049367
     49 H19         29.0250    35.9250    24.7270 h1         1 OS8       0.031700
     50 H20         26.1540    46.7770    21.1770 hc         1 OS8       0.050200
     51 H21         25.4520    46.3330    22.7270 hc         1 OS8       0.050200
     52 H22         23.7530    45.9050    21.0190 hc         1 OS8       0.044200
     53 H23         24.9090    45.0760    20.0040 hc         1 OS8       0.044200
     54 H24         22.3080    43.9250    20.9050 ha         1 OS8       0.106000
     55 H25         21.6340    41.7940    21.9440 ha         1 OS8       0.127000
     56 H26         25.5070    41.5090    23.7420 ha         1 OS8       0.115000
     57 H27         23.4510    38.7290    24.5830 h1         1 OS8       0.042700
     58 H28         24.8910    39.2980    23.7270 h1         1 OS8       0.042700
     59 H29         24.3000    40.1720    25.1580 h1         1 OS8       0.042700
     60 H30         27.1720    37.1250    23.9310 hn         1 OS8       0.485000
     61 H1          27.2870    44.5980    21.0140 h1         1 OS8       0.033700
@<TRIPOS>BOND
     1     1    12 1   
     2     1    14 1   
     3     1    31 2   
     4     2    15 1   
     5     2    18 1   
     6     2    32 1   
     7     2    61 1   
     8     3     4 ar  
     9     3    12 1   
    10     3    29 ar  
    11     4     6 ar  
    12     4    33 1   
    13     5    10 1   
    14     5    13 1   
    15     5    34 1   
    16     5    35 1   
    17     6     7 ar  
    18     6    36 1   
    19     7     8 ar  
    20     7    37 1   
    21     8     9 1   
    22     8    29 ar  
    23     9    13 1   
    24     9    28 2   
    25    10    11 1   
    26    10    38 1   
    27    10    39 1   
    28    11    15 1   
    29    11    40 1   
    30    11    41 1   
    31    12    42 1   
    32    13    43 1   
    33    14    17 1   
    34    14    44 1   
    35    14    45 1   
    36    15    25 1   
    37    16    17 1   
    38    16    46 1   
    39    16    47 1   
    40    16    48 1   
    41    17    30 1   
    42    17    49 1   
    43    18    19 1   
    44    18    50 1   
    45    18    51 1   
    46    19    20 1   
    47    19    52 1   
    48    19    53 1   
    49    20    21 ar  
    50    20    25 ar  
    51    21    22 ar  
    52    21    54 1   
    53    22    23 ar  
    54    22    55 1   
    55    23    24 ar  
    56    23    26 1   
    57    24    25 ar  
    58    24    56 1   
    59    26    27 1   
    60    27    57 1   
    61    27    58 1   
    62    27    59 1   
    63    29    30 1   
    64    30    60 1   
@<TRIPOS>SUBSTRUCTURE
     1 OS8         1 TEMP              0 ****  ****    0 ROOT
