@<TRIPOS>MOLECULE
OS9
   68    72     1     0     0
SMALL
abcg2


@<TRIPOS>ATOM
      1 O1         120.0240   126.7560   163.3560 os         1 OS9      -0.319100
      2 C1         119.2750   125.5780   163.5800 c3         1 OS9       0.144900
      3 C5         124.1530   126.6590   163.0840 ca         1 OS9      -0.132000
      4 C6         123.4420   127.8420   162.9310 ca         1 OS9      -0.108000
      5 C4         123.4690   125.4800   163.3250 ca         1 OS9      -0.081000
      6 C3         122.0820   125.4710   163.4170 ca         1 OS9      -0.188000
      7 C2         121.3610   126.6540   163.2760 ca         1 OS9       0.133100
      8 C10        121.6420   132.4710   163.7420 ca         1 OS9      -0.093000
      9 C11        122.1090   132.3910   165.0450 ca         1 OS9      -0.113000
     10 C12        122.3100   131.1470   165.6380 ca         1 OS9      -0.059300
     11 C13        122.0520   129.9940   164.9080 ca         1 OS9      -0.162000
     12 C14        122.8120   131.0610   167.0560 c3         1 OS9       0.211100
     13 C15        124.5040   131.7970   168.5850 c6         1 OS9       0.165800
     14 C16        125.8490   132.4980   168.7060 c6         1 OS9      -0.071900
     15 C17        126.9900   131.7620   167.9810 c5         1 OS9       0.153200
     16 C18        126.5180   131.4110   166.5660 c6         1 OS9      -0.071900
     17 C19        125.1310   130.7890   166.5040 c6         1 OS9       0.165800
     18 C20        127.4010   130.5180   168.7700 c          1 OS9       0.566000
     19 C21        129.1370   132.0540   168.9790 c5         1 OS9       0.384200
     20 C23        128.2350   134.9500   168.5820 c3         1 OS9      -0.071100
     21 C24        128.4080   136.3050   167.9590 ca         1 OS9      -0.081300
     22 C25        127.3180   136.9900   167.4240 ca         1 OS9      -0.107000
     23 C26        127.4860   138.2180   166.7980 ca         1 OS9      -0.107500
     24 C27        128.7510   138.7810   166.6940 ca         1 OS9      -0.109000
     25 C28        129.8450   138.1080   167.2210 ca         1 OS9      -0.107500
     26 C29        129.6720   136.8800   167.8470 ca         1 OS9      -0.107000
     27 C7         122.0610   127.8410   163.0280 ca         1 OS9       0.071100
     28 C8         121.6050   130.0830   163.5930 ca         1 OS9       0.123100
     29 C9         121.3930   131.3210   163.0050 ca         1 OS9      -0.131000
     30 N1         124.1480   131.6090   167.1910 n3         1 OS9      -0.719600
     31 N2         128.6180   130.7500   169.2810 ns         1 OS9      -0.520900
     32 N3         128.2520   132.4870   167.9300 n3         1 OS9      -0.815600
     33 H1         118.2300   125.8770   163.6000 h1         1 OS9       0.041367
     34 H2         119.4180   124.8470   162.7800 h1         1 OS9       0.041367
     35 H3         119.5260   125.1100   164.5350 h1         1 OS9       0.041367
     36 H4         125.2320   126.6650   163.0080 ha         1 OS9       0.119000
     37 H5         123.9620   128.7720   162.7340 ha         1 OS9       0.128000
     38 H6         124.0100   124.5490   163.4420 ha         1 OS9       0.114000
     39 H7         121.5760   124.5350   163.6070 ha         1 OS9       0.119000
     40 H8         121.4790   133.4390   163.2850 ha         1 OS9       0.113000
     41 H9         122.3140   133.2940   165.6060 ha         1 OS9       0.121000
     42 H10        122.2140   129.0260   165.3700 ha         1 OS9       0.125000
     43 H11        122.1450   131.6390   167.7030 h1         1 OS9       0.040700
     44 H12        122.7550   130.0160   167.4040 h1         1 OS9       0.040700
     45 H13        123.7420   132.4250   169.0540 h1         1 OS9       0.044450
     46 H14        124.5100   130.8490   169.1430 h1         1 OS9       0.044450
     47 H15        126.0950   132.6550   169.7600 hc         1 OS9       0.052950
     48 H16        125.7460   133.4880   168.2510 hc         1 OS9       0.052950
     49 H17        127.2390   130.7460   166.0850 hc         1 OS9       0.052950
     50 H18        126.5060   132.3350   165.9810 hc         1 OS9       0.052950
     51 H19        124.8440   130.7020   165.4530 h1         1 OS9       0.044450
     52 H20        125.1500   129.7660   166.9070 h1         1 OS9       0.044450
     53 H21        130.1740   132.0030   168.6290 h2         1 OS9       0.031200
     54 H22        129.1260   132.6880   169.8780 h2         1 OS9       0.031200
     55 H23        129.3120   133.9920   166.9960 h1         1 OS9       0.056700
     56 H24        127.5860   134.0350   166.7400 h1         1 OS9       0.056700
     57 H25        127.2690   134.8870   169.0870 hc         1 OS9       0.049200
     58 H26        129.0030   134.8000   169.3440 hc         1 OS9       0.049200
     59 H27        126.3270   136.5570   167.5020 ha         1 OS9       0.110500
     60 H28        126.6260   138.7370   166.3920 ha         1 OS9       0.112500
     61 H29        128.8830   139.7390   166.2080 ha         1 OS9       0.113000
     62 H30        130.8350   138.5400   167.1480 ha         1 OS9       0.112500
     63 H31        130.5300   136.3620   168.2600 ha         1 OS9       0.110500
     64 H32        121.0420   131.3830   161.9830 ha         1 OS9       0.127000
     65 H34        129.0800   130.1080   169.9060 hn         1 OS9       0.335500
     66 O2         121.3280   128.9800   162.8370 os         1 OS9      -0.237200
     67 O3         126.7460   129.5020   168.9260 o          1 OS9      -0.552000
     68 C22        128.3480   133.8570   167.5010 c3         1 OS9       0.216800
@<TRIPOS>BOND
     1     1     2 1   
     2     1     7 1   
     3     2    33 1   
     4     2    34 1   
     5     2    35 1   
     6     3     4 ar  
     7     3     5 ar  
     8     3    36 1   
     9     4    27 ar  
    10     4    37 1   
    11     5     6 ar  
    12     5    38 1   
    13     6     7 ar  
    14     6    39 1   
    15     7    27 ar  
    16     8     9 ar  
    17     8    29 ar  
    18     8    40 1   
    19     9    10 ar  
    20     9    41 1   
    21    10    11 ar  
    22    10    12 1   
    23    11    28 ar  
    24    11    42 1   
    25    12    30 1   
    26    12    43 1   
    27    12    44 1   
    28    13    14 1   
    29    13    30 1   
    30    13    45 1   
    31    13    46 1   
    32    14    15 1   
    33    14    47 1   
    34    14    48 1   
    35    15    16 1   
    36    15    18 1   
    37    15    32 1   
    38    16    17 1   
    39    16    49 1   
    40    16    50 1   
    41    17    30 1   
    42    17    51 1   
    43    17    52 1   
    44    18    31 1   
    45    18    67 2   
    46    19    31 1   
    47    19    32 1   
    48    19    53 1   
    49    19    54 1   
    50    20    21 1   
    51    20    57 1   
    52    20    58 1   
    53    20    68 1   
    54    21    22 ar  
    55    21    26 ar  
    56    22    23 ar  
    57    22    59 1   
    58    23    24 ar  
    59    23    60 1   
    60    24    25 ar  
    61    24    61 1   
    62    25    26 ar  
    63    25    62 1   
    64    26    63 1   
    65    27    66 1   
    66    28    29 ar  
    67    28    66 1   
    68    29    64 1   
    69    31    65 1   
    70    32    68 1   
    71    55    68 1   
    72    56    68 1   
@<TRIPOS>SUBSTRUCTURE
     1 OS9         1 TEMP              0 ****  ****    0 ROOT
