@<TRIPOS>MOLECULE
OS9
   68    72     1     0     0
SMALL
No Charge or Current Charge


@<TRIPOS>ATOM
      1 O1         120.3080   126.3390   163.2300 os         1 OS9      -0.319100
      2 C1         119.7770   125.0040   163.2810 c3         1 OS9       0.144900
      3 C5         124.4240   127.2070   163.3640 ca         1 OS9      -0.132000
      4 C6         123.4800   128.2430   163.2590 ca         1 OS9      -0.108000
      5 C4         123.9970   125.8710   163.4270 ca         1 OS9      -0.081000
      6 C3         122.6250   125.5640   163.3810 ca         1 OS9      -0.188000
      7 C2         121.6670   126.6000   163.2770 ca         1 OS9       0.133100
      8 C10        121.0280   132.5740   163.8100 ca         1 OS9      -0.093000
      9 C11        121.5500   132.6190   165.1150 ca         1 OS9      -0.113000
     10 C12        121.9370   131.4330   165.7700 ca         1 OS9      -0.059300
     11 C13        121.7990   130.2000   165.1020 ca         1 OS9      -0.162000
     12 C14        122.5080   131.4860   167.1850 c3         1 OS9       0.211100
     13 C15        124.4050   132.1070   168.6290 c6         1 OS9       0.165800
     14 C16        125.8540   132.6470   168.6550 c6         1 OS9      -0.071900
     15 C17        126.8350   131.6720   167.9360 c5         1 OS9       0.153200
     16 C18        126.3000   131.4460   166.4920 c6         1 OS9      -0.071900
     17 C19        124.8310   130.9580   166.4880 c6         1 OS9       0.165800
     18 C20        127.0370   130.3590   168.7460 c          1 OS9       0.566000
     19 C21        128.9130   131.7590   169.0940 c5         1 OS9       0.384200
     20 C23        128.5380   134.7250   168.4380 c3         1 OS9      -0.071100
     21 C24        128.6940   136.1000   167.8050 ca         1 OS9      -0.081300
     22 C25        127.5630   136.7960   167.3370 ca         1 OS9      -0.107000
     23 C26        127.7040   138.0630   166.7460 ca         1 OS9      -0.107500
     24 C27        128.9780   138.6420   166.6190 ca         1 OS9      -0.109000
     25 C28        130.1100   137.9520   167.0820 ca         1 OS9      -0.107500
     26 C29        129.9690   136.6840   167.6730 ca         1 OS9      -0.107000
     27 C7         122.1020   127.9440   163.2260 ca         1 OS9       0.071100
     28 C8         121.2980   130.1560   163.7870 ca         1 OS9       0.123100
     29 C9         120.9010   131.3410   163.1480 ca         1 OS9      -0.131000
     30 N1         123.9350   131.8900   167.2340 n3         1 OS9      -0.719600
     31 N2         128.3210   130.4370   169.2100 ns         1 OS9      -0.520900
     32 N3         128.2350   132.2220   167.8610 n3         1 OS9      -0.815600
     33 H1         118.6820   125.0290   163.2290 h1         1 OS9       0.041367
     34 H2         120.1440   124.4060   162.4360 h1         1 OS9       0.041367
     35 H3         120.0620   124.5060   164.2160 h1         1 OS9       0.041367
     36 H4         125.4860   127.4400   163.3930 ha         1 OS9       0.119000
     37 H5         123.8200   129.2740   163.2010 ha         1 OS9       0.128000
     38 H6         124.7300   125.0710   163.5070 ha         1 OS9       0.114000
     39 H7         122.3270   124.5210   163.4280 ha         1 OS9       0.119000
     40 H8         120.7290   133.4940   163.3120 ha         1 OS9       0.113000
     41 H9         121.6580   133.5770   165.6200 ha         1 OS9       0.121000
     42 H10        122.0910   129.2810   165.6040 ha         1 OS9       0.125000
     43 H11        121.9030   132.1960   167.7650 h1         1 OS9       0.040700
     44 H12        122.3800   130.5030   167.6590 h1         1 OS9       0.040700
     45 H13        123.7550   132.8340   169.1380 h1         1 OS9       0.044450
     46 H14        124.3490   131.1720   169.2060 h1         1 OS9       0.044450
     47 H15        126.1680   132.8160   169.6930 hc         1 OS9       0.052950
     48 H16        125.8510   133.6230   168.1540 hc         1 OS9       0.052950
     49 H17        126.9320   130.7150   165.9690 hc         1 OS9       0.052950
     50 H18        126.3550   132.3750   165.9110 hc         1 OS9       0.052950
     51 H19        124.5090   130.8720   165.4400 h1         1 OS9       0.044450
     52 H20        124.7750   129.9470   166.9170 h1         1 OS9       0.044450
     53 H21        130.0000   131.7170   168.9580 h2         1 OS9       0.031200
     54 H22        128.6450   132.3840   169.9550 h2         1 OS9       0.031200
     55 H23        129.5250   133.6000   166.9020 h1         1 OS9       0.056700
     56 H24        127.8250   133.8800   166.5800 h1         1 OS9       0.056700
     57 H25        127.6220   134.7000   169.0350 hc         1 OS9       0.049200
     58 H26        129.3590   134.5450   169.1430 hc         1 OS9       0.049200
     59 H27        126.5730   136.3530   167.4300 ha         1 OS9       0.110500
     60 H28        126.8260   138.5960   166.3860 ha         1 OS9       0.112500
     61 H29        129.0870   139.6230   166.1610 ha         1 OS9       0.113000
     62 H30        131.0970   138.3990   166.9830 ha         1 OS9       0.112500
     63 H31        130.8520   136.1560   168.0270 ha         1 OS9       0.110500
     64 H32        120.5030   131.3040   162.1370 ha         1 OS9       0.127000
     65 H34        128.6920   129.6780   169.7650 hn         1 OS9       0.335500
     66 O2         121.1730   128.9600   163.1170 os         1 OS9      -0.237200
     67 O3         126.3210   129.3770   168.8900 o          1 OS9      -0.552000
     68 C22        128.5320   133.6000   167.3720 c3         1 OS9       0.216800
@<TRIPOS>BOND
     1     1     2 1   
     2     1     7 1   
     3     2    33 1   
     4     2    34 1   
     5     2    35 1   
     6     3     4 ar  
     7     3     5 ar  
     8     3    36 1   
     9     4    27 ar  
    10     4    37 1   
    11     5     6 ar  
    12     5    38 1   
    13     6     7 ar  
    14     6    39 1   
    15     7    27 ar  
    16     8     9 ar  
    17     8    29 ar  
    18     8    40 1   
    19     9    10 ar  
    20     9    41 1   
    21    10    11 ar  
    22    10    12 1   
    23    11    28 ar  
    24    11    42 1   
    25    12    30 1   
    26    12    43 1   
    27    12    44 1   
    28    13    14 1   
    29    13    30 1   
    30    13    45 1   
    31    13    46 1   
    32    14    15 1   
    33    14    47 1   
    34    14    48 1   
    35    15    16 1   
    36    15    18 1   
    37    15    32 1   
    38    16    17 1   
    39    16    49 1   
    40    16    50 1   
    41    17    30 1   
    42    17    51 1   
    43    17    52 1   
    44    18    31 1   
    45    18    67 2   
    46    19    31 1   
    47    19    32 1   
    48    19    53 1   
    49    19    54 1   
    50    20    21 1   
    51    20    57 1   
    52    20    58 1   
    53    20    68 1   
    54    21    22 ar  
    55    21    26 ar  
    56    22    23 ar  
    57    22    59 1   
    58    23    24 ar  
    59    23    60 1   
    60    24    25 ar  
    61    24    61 1   
    62    25    26 ar  
    63    25    62 1   
    64    26    63 1   
    65    27    66 1   
    66    28    29 ar  
    67    28    66 1   
    68    29    64 1   
    69    31    65 1   
    70    32    68 1   
    71    55    68 1   
    72    56    68 1   
@<TRIPOS>SUBSTRUCTURE
     1 OS9         1 TEMP              0 ****  ****    0 ROOT
