@<TRIPOS>MOLECULE
OSB
   24    24     1     0     0
SMALL
No Charge or Current Charge


@<TRIPOS>ATOM
      1 O1          -2.5700     0.1160    -1.1880 o          1 OSB      -0.710000
      2 O2          -1.6780    -1.7350    -0.5570 o          1 OSB      -0.710000
      3 C7          -1.6140    -0.6400    -1.0930 c          1 OSB       0.706600
      4 C6           2.1330    -0.0160    -1.7580 ca         1 OSB      -0.118000
      5 C5           2.0830     0.5760    -3.0290 ca         1 OSB      -0.152000
      6 C4           0.8470     0.7760    -3.6570 ca         1 OSB      -0.153000
      7 C3          -0.3390     0.3810    -3.0170 ca         1 OSB      -0.096000
      8 C2          -0.3080    -0.2230    -1.7390 ca         1 OSB      -0.111600
      9 C1           0.9500    -0.4190    -1.1030 ca         1 OSB      -0.115600
     10 C8           1.0690    -1.0120     0.2780 c          1 OSB       0.643700
     11 C9           1.0270    -0.0420     1.4730 c3         1 OSB      -0.123400
     12 O3           1.2870    -2.2100     0.4380 o          1 OSB      -0.590100
     13 C10         -0.3310    -0.0620     2.2300 c3         1 OSB      -0.191400
     14 C11         -0.2640     0.8390     3.4750 c          1 OSB       0.717000
     15 O4           0.1270     0.3480     4.5220 o          1 OSB      -0.764000
     16 O5          -0.5470     2.0200     3.3480 o          1 OSB      -0.764000
     17 H61          3.0970    -0.1590    -1.2730 ha         1 OSB       0.094000
     18 H51          3.0010     0.8820    -3.5230 ha         1 OSB       0.072000
     19 H41          0.8050     1.2360    -4.6410 ha         1 OSB       0.071000
     20 H31         -1.2920     0.5390    -3.5190 ha         1 OSB       0.117000
     21 H91          1.1850     0.9790     1.1040 hc         1 OSB       0.054700
     22 H92          1.8240    -0.3170     2.1740 hc         1 OSB       0.054700
     23 H101        -0.4970    -1.1050     2.5270 hc         1 OSB       0.034700
     24 H102        -1.0770     0.3220     1.5250 hc         1 OSB       0.034700
@<TRIPOS>BOND
     1     1     3 1   
     2     2     3 1   
     3     3     8 1   
     4     4     5 ar  
     5     4     9 ar  
     6     4    17 1   
     7     5     6 ar  
     8     5    18 1   
     9     6     7 ar  
    10     6    19 1   
    11     7     8 ar  
    12     7    20 1   
    13     8     9 ar  
    14     9    10 1   
    15    10    11 1   
    16    10    12 2   
    17    11    13 1   
    18    11    21 1   
    19    11    22 1   
    20    13    14 1   
    21    13    23 1   
    22    13    24 1   
    23    14    15 1   
    24    14    16 1   
@<TRIPOS>SUBSTRUCTURE
     1 OSB         1 TEMP              0 ****  ****    0 ROOT
