@<TRIPOS>MOLECULE
OSB
   24    24     1     0     0
SMALL
bcc


@<TRIPOS>ATOM
      1 O1          -2.6380     0.5450    -2.0760 o          1 OSB      -0.815300
      2 O2          -1.8310    -0.5850    -0.3290 o          1 OSB      -0.815300
      3 C7          -1.7220     0.0310    -1.4120 c          1 OSB       0.917200
      4 C6           2.0500    -0.2940    -1.6980 ca         1 OSB      -0.136000
      5 C5           2.2930     0.2540    -2.9500 ca         1 OSB      -0.170000
      6 C4           1.2360     0.7430    -3.7070 ca         1 OSB      -0.171000
      7 C3          -0.0560     0.6810    -3.2070 ca         1 OSB      -0.114000
      8 C2          -0.3100     0.1380    -1.9520 ca         1 OSB      -0.111600
      9 C1           0.7540    -0.3470    -1.1930 ca         1 OSB      -0.115600
     10 C8           0.5630    -0.9260     0.1810 c          1 OSB       0.643700
     11 C9           0.4870     0.0740     1.3020 c3         1 OSB      -0.123400
     12 O3           0.7020    -2.1190     0.3630 o          1 OSB      -0.590100
     13 C10         -0.0710    -0.4650     2.6040 c3         1 OSB      -0.191400
     14 C11         -0.0390     0.5270     3.7800 c          1 OSB       0.927600
     15 O4           0.6200     1.5760     3.6410 o          1 OSB      -0.869300
     16 O5          -0.6730     0.1820     4.8000 o          1 OSB      -0.869300
     17 H61          2.8790    -0.6710    -1.1100 ha         1 OSB       0.112000
     18 H51          3.3040     0.2970    -3.3330 ha         1 OSB       0.090000
     19 H41          1.4220     1.1680    -4.6850 ha         1 OSB       0.089000
     20 H31         -0.8840     1.0510    -3.7970 ha         1 OSB       0.135000
     21 H91         -0.0630     0.9550     0.9690 hc         1 OSB       0.054700
     22 H92          1.5170     0.4210     1.4520 hc         1 OSB       0.054700
     23 H101         0.4810    -1.3610     2.9070 hc         1 OSB       0.034700
     24 H102        -1.1010    -0.7990     2.4490 hc         1 OSB       0.034700
@<TRIPOS>BOND
     1     1     3 1   
     2     2     3 1   
     3     3     8 1   
     4     4     5 ar  
     5     4     9 ar  
     6     4    17 1   
     7     5     6 ar  
     8     5    18 1   
     9     6     7 ar  
    10     6    19 1   
    11     7     8 ar  
    12     7    20 1   
    13     8     9 ar  
    14     9    10 1   
    15    10    11 1   
    16    10    12 2   
    17    11    13 1   
    18    11    21 1   
    19    11    22 1   
    20    13    14 1   
    21    13    23 1   
    22    13    24 1   
    23    14    15 1   
    24    14    16 1   
@<TRIPOS>SUBSTRUCTURE
     1 OSB         1 TEMP              0 ****  ****    0 ROOT
