@<TRIPOS>MOLECULE
OSC
   89    93     1     0     0
SMALL
abcg2


@<TRIPOS>ATOM
      1 N1          18.5880   -13.4470    21.7590 n          1 OSC      -0.389800
      2 C2          19.6880   -14.2590    21.2080 c5         1 OSC       0.128700
      3 C3          18.6370   -12.0590    21.2700 c5         1 OSC       0.030700
      4 C4          17.7600   -13.7640    22.7650 c          1 OSC       0.588100
      5 C5          20.7480   -13.1880    20.9150 c5         1 OSC      -0.076700
      6 C6          19.2430   -15.0380    19.9660 c6         1 OSC      -0.091400
      7 C7          19.9090   -12.0120    20.4030 c5         1 OSC      -0.080400
      8 C8          17.3890   -11.7000    20.4590 c          1 OSC       0.600100
      9 C9          17.8430   -15.1690    23.3740 c3         1 OSC       0.047700
     10 O10         16.9540   -12.9540    23.2320 o          1 OSC      -0.631100
     11 C11         21.8720   -13.6670    19.9990 c6         1 OSC      -0.054400
     12 C12         20.4210   -15.5720    19.1680 c6         1 OSC       0.174300
     13 N13         16.7500   -10.5880    20.8520 ns         1 OSC      -0.491900
     14 O14         17.0480   -12.3820    19.4910 o          1 OSC      -0.618100
     15 C15         18.5710   -15.1090    24.7380 c3         1 OSC      -0.041100
     16 N16         16.4990   -15.6700    23.5520 ns         1 OSC      -0.488900
     17 C17         21.3690   -14.4380    18.7780 c6         1 OSC      -0.111400
     18 O18         21.0790   -16.5620    19.9790 oh         1 OSC      -0.668000
     19 C19         15.5570   -10.0500    20.2160 c3         1 OSC       0.104000
     20 C20         19.9630   -14.5410    24.6530 ca         1 OSC      -0.088300
     21 C21         15.9950   -16.7470    22.9310 c          1 OSC       0.585100
     22 C22         14.3290   -10.0820    21.1260 c3         1 OSC      -0.038200
     23 C23         20.1850   -13.1740    24.8250 ca         1 OSC      -0.103500
     24 C24         21.0530   -15.3610    24.3570 ca         1 OSC      -0.103500
     25 C25         14.5060   -16.9880    23.2040 c3         1 OSC       0.110300
     26 O26         16.6370   -17.4880    22.1840 o          1 OSC      -0.625100
     27 C27         13.7970   -11.4410    21.4530 c2         1 OSC      -0.153400
     28 C28         21.4620   -12.6370    24.6990 ca         1 OSC      -0.113500
     29 C29         22.3310   -14.8290    24.2240 ca         1 OSC      -0.113500
     30 C30         14.2570   -18.4450    23.6310 c3         1 OSC      -0.044100
     31 O31         14.0170   -16.0780    24.1630 oh         1 OSC      -0.730000
     32 C32         12.7170   -11.5930    22.4910 c5         1 OSC       0.269000
     33 C33         14.1440   -12.6270    20.9620 c2         1 OSC      -0.203200
     34 C34         22.5390   -13.4630    24.3940 ca         1 OSC      -0.114000
     35 C35         12.7850   -18.7370    23.7200 ca         1 OSC      -0.072300
     36 N36         12.5030   -13.0400    22.5260 nh         1 OSC      -0.789600
     37 C37         13.3970   -13.7480    21.6090 c5         1 OSC       0.271000
     38 C38         12.0570   -19.0580    22.5720 ca         1 OSC      -0.100000
     39 C39         12.1020   -18.6310    24.9320 ca         1 OSC      -0.100000
     40 C40         11.6520   -13.6840    23.3530 c2         1 OSC       0.854100
     41 C41         10.6830   -19.2640    22.6320 ca         1 OSC      -0.115000
     42 C42         10.7270   -18.8370    24.9980 ca         1 OSC      -0.115000
     43 N43         11.6710   -14.9900    23.4240 n2         1 OSC      -0.965100
     44 N44         10.8390   -12.8840    24.1230 nv         1 OSC      -1.073200
     45 C45         10.0120   -19.1520    23.8470 ca         1 OSC      -0.116000
     46 H2          20.0540   -14.9430    21.9640 h1         1 OSC       0.082700
     47 H3          18.7240   -11.3970    22.1320 h1         1 OSC       0.063700
     48 H5          21.1790   -12.8960    21.8750 hc         1 OSC       0.061700
     49 H61         18.6550   -14.3830    19.3220 hc         1 OSC       0.076700
     50 H62         18.5900   -15.8600    20.2680 hc         1 OSC       0.076700
     51 H71         20.4220   -11.0570    20.5070 hc         1 OSC       0.061200
     52 H72         19.6470   -12.1470    19.3540 hc         1 OSC       0.061200
     53 H9          18.3540   -15.8630    22.7130 h1         1 OSC       0.098700
     54 H111        22.5350   -14.3150    20.5780 hc         1 OSC       0.046200
     55 H112        22.4740   -12.8120    19.6810 hc         1 OSC       0.046200
     56 H12         20.0440   -16.0530    18.2590 h1         1 OSC       0.040700
     57 H13         17.0750   -10.1310    21.6910 hn         1 OSC       0.316500
     58 H151        18.5980   -16.1270    25.1300 hc         1 OSC       0.066200
     59 H152        17.9620   -14.5060    25.4130 hc         1 OSC       0.066200
     60 H16         15.8430   -15.1250    24.0950 hn         1 OSC       0.353500
     61 H171        22.2160   -14.8470    18.2200 hc         1 OSC       0.046200
     62 H172        20.8340   -13.7740    18.0940 hc         1 OSC       0.046200
     63 H18         21.8570   -16.8740    19.5020 ho         1 OSC       0.436000
     64 H191        15.3840   -10.6230    19.3080 h1         1 OSC       0.060200
     65 H192        15.7530    -9.0150    19.9280 h1         1 OSC       0.060200
     66 H221        13.5390    -9.4890    20.6520 hc         1 OSC       0.049700
     67 H222        14.5620    -9.5590    22.0610 hc         1 OSC       0.049700
     68 H23         19.3490   -12.5240    25.0540 ha         1 OSC       0.120000
     69 H24         20.8950   -16.4250    24.2200 ha         1 OSC       0.120000
     70 H25         14.0080   -16.8250    22.2400 h1         1 OSC       0.054700
     71 H28         21.6150   -11.5730    24.8330 ha         1 OSC       0.113000
     72 H29         23.1630   -15.4800    23.9870 ha         1 OSC       0.113000
     73 H301        14.7370   -18.6040    24.6000 hc         1 OSC       0.064200
     74 H302        14.7360   -19.1030    22.9050 hc         1 OSC       0.064200
     75 H31         13.1390   -15.7000    23.8500 ho         1 OSC       0.516000
     76 H321        11.8080   -11.0480    22.2040 h1         1 OSC       0.045700
     77 H322        13.0320   -11.2080    23.4690 h1         1 OSC       0.045700
     78 H33         14.9080   -12.8070    20.2210 ha         1 OSC       0.225000
     79 H34         23.5330   -13.0470    24.2890 ha         1 OSC       0.111000
     80 H371        14.0710   -14.4190    22.1470 h1         1 OSC       0.067200
     81 H372        12.8290   -14.3610    20.9000 h1         1 OSC       0.067200
     82 H38         12.5730   -19.1430    21.6220 ha         1 OSC       0.114000
     83 H39         12.6530   -18.3800    25.8300 ha         1 OSC       0.114000
     84 H41         10.1360   -19.5130    21.7300 ha         1 OSC       0.107500
     85 H42         10.2150   -18.7490    25.9480 ha         1 OSC       0.107500
     86 H43         10.9400   -15.3270    24.0430 hn         1 OSC       0.388400
     87 H441        10.5830   -11.9780    23.7590 hn         1 OSC       0.462500
     88 H442        10.0820   -13.3580    24.5900 hn         1 OSC       0.462500
     89 H45          8.9420   -19.3120    23.8960 ha         1 OSC       0.106000
@<TRIPOS>BOND
     1     1     2 1   
     2     1     3 1   
     3     1     4 1   
     4     2     5 1   
     5     2     6 1   
     6     2    46 1   
     7     3     7 1   
     8     3     8 1   
     9     3    47 1   
    10     4     9 1   
    11     4    10 2   
    12     5     7 1   
    13     5    11 1   
    14     5    48 1   
    15     6    12 1   
    16     6    49 1   
    17     6    50 1   
    18     7    51 1   
    19     7    52 1   
    20     8    13 1   
    21     8    14 2   
    22     9    15 1   
    23     9    16 1   
    24     9    53 1   
    25    11    17 1   
    26    11    54 1   
    27    11    55 1   
    28    12    17 1   
    29    12    18 1   
    30    12    56 1   
    31    13    19 1   
    32    13    57 1   
    33    15    20 1   
    34    15    58 1   
    35    15    59 1   
    36    16    21 1   
    37    16    60 1   
    38    17    61 1   
    39    17    62 1   
    40    18    63 1   
    41    19    22 1   
    42    19    64 1   
    43    19    65 1   
    44    20    23 ar  
    45    20    24 ar  
    46    21    25 1   
    47    21    26 2   
    48    22    27 1   
    49    22    66 1   
    50    22    67 1   
    51    23    28 ar  
    52    23    68 1   
    53    24    29 ar  
    54    24    69 1   
    55    25    30 1   
    56    25    31 1   
    57    25    70 1   
    58    27    32 1   
    59    27    33 2   
    60    28    34 ar  
    61    28    71 1   
    62    29    34 ar  
    63    29    72 1   
    64    30    35 1   
    65    30    73 1   
    66    30    74 1   
    67    31    75 1   
    68    32    36 1   
    69    32    76 1   
    70    32    77 1   
    71    33    37 1   
    72    33    78 1   
    73    34    79 1   
    74    35    38 ar  
    75    35    39 ar  
    76    36    37 1   
    77    36    40 1   
    78    37    80 1   
    79    37    81 1   
    80    38    41 ar  
    81    38    82 1   
    82    39    42 ar  
    83    39    83 1   
    84    40    43 2   
    85    40    44 1   
    86    41    45 ar  
    87    41    84 1   
    88    42    45 ar  
    89    42    85 1   
    90    43    86 1   
    91    44    87 1   
    92    44    88 1   
    93    45    89 1   
@<TRIPOS>SUBSTRUCTURE
     1 OSC         1 TEMP              0 ****  ****    0 ROOT
