@<TRIPOS>MOLECULE
OSC
   89    93     1     0     0
SMALL
No Charge or Current Charge


@<TRIPOS>ATOM
      1 N1          18.5030   -13.3980    21.7960 n          1 OSC      -0.389800
      2 C2          19.6840   -14.1860    21.3840 c5         1 OSC       0.128700
      3 C3          18.4020   -12.0820    21.0980 c5         1 OSC       0.030700
      4 C4          17.5390   -13.8070    22.7500 c          1 OSC       0.588100
      5 C5          20.6300   -13.0340    20.9450 c5         1 OSC      -0.076700
      6 C6          19.3490   -15.1730    20.2290 c6         1 OSC      -0.091400
      7 C7          19.6640   -12.0880    20.1770 c5         1 OSC      -0.080400
      8 C8          17.1310   -11.9320    20.1990 c          1 OSC       0.600100
      9 C9          17.7090   -15.1660    23.5040 c3         1 OSC       0.047700
     10 O10         16.5920   -13.0680    23.0010 o          1 OSC      -0.631100
     11 C11         21.8820   -13.5280    20.1720 c6         1 OSC      -0.054400
     12 C12         20.6310   -15.7010    19.5410 c6         1 OSC       0.174300
     13 N13         16.6780   -10.6290    20.2510 ns         1 OSC      -0.491900
     14 O14         16.6010   -12.8020    19.5170 o          1 OSC      -0.618100
     15 C15         18.4200   -14.9840    24.8700 c3         1 OSC      -0.041100
     16 N16         16.3840   -15.7850    23.7180 ns         1 OSC      -0.488900
     17 C17         21.5160   -14.5270    19.0400 c6         1 OSC      -0.111400
     18 O18         21.3670   -16.5320    20.4460 oh         1 OSC      -0.668000
     19 C19         15.4550   -10.1410    19.6040 c3         1 OSC       0.104000
     20 C20         19.8600   -14.5030    24.7530 ca         1 OSC      -0.088300
     21 C21         15.6380   -16.4010    22.7400 c          1 OSC       0.585100
     22 C22         14.2960    -9.9420    20.6080 c3         1 OSC      -0.038200
     23 C23         20.1520   -13.1250    24.7690 ca         1 OSC      -0.103500
     24 C24         20.9090   -15.4320    24.6150 ca         1 OSC      -0.103500
     25 C25         14.2300   -16.9090    23.2000 c3         1 OSC       0.110300
     26 O26         16.0540   -16.5210    21.5950 o          1 OSC      -0.625100
     27 C27         13.7820   -11.2100    21.2770 c2         1 OSC      -0.153400
     28 C28         21.4790   -12.6810    24.6390 ca         1 OSC      -0.113500
     29 C29         22.2360   -14.9870    24.4780 ca         1 OSC      -0.113500
     30 C30         14.1640   -18.4560    23.1730 c3         1 OSC      -0.044100
     31 O31         13.8640   -16.4320    24.5250 oh         1 OSC      -0.730000
     32 C32         13.2610   -11.2060    22.7010 c5         1 OSC       0.269000
     33 C33         13.6830   -12.4330    20.7410 c2         1 OSC      -0.203200
     34 C34         22.5210   -13.6110    24.4890 ca         1 OSC      -0.114000
     35 C35         12.7560   -19.0040    23.3920 ca         1 OSC      -0.072300
     36 N36         12.5390   -12.5040    22.7080 nh         1 OSC      -0.789600
     37 C37         13.1100   -13.4420    21.7070 c5         1 OSC       0.271000
     38 C38         11.8000   -18.9310    22.3590 ca         1 OSC      -0.100000
     39 C39         12.4000   -19.5940    24.6210 ca         1 OSC      -0.100000
     40 C40         12.2110   -12.9810    23.9210 c2         1 OSC       0.854100
     41 C41         10.5040   -19.4400    22.5530 ca         1 OSC      -0.115000
     42 C42         11.1040   -20.1030    24.8150 ca         1 OSC      -0.115000
     43 N43         12.5440   -14.1010    24.3600 n2         1 OSC      -0.965100
     44 N44         11.1830   -12.3400    24.4050 nv         1 OSC      -1.073200
     45 C45         10.1550   -20.0260    23.7820 ca         1 OSC      -0.116000
     46 H2          20.1380   -14.7500    22.2060 h1         1 OSC       0.082700
     47 H3          18.4450   -11.2660    21.8310 h1         1 OSC       0.063700
     48 H5          21.0240   -12.5150    21.8270 hc         1 OSC       0.061700
     49 H61         18.7170   -14.6840    19.4780 hc         1 OSC       0.076700
     50 H62         18.7590   -16.0150    20.6120 hc         1 OSC       0.076700
     51 H71         20.0810   -11.0830    20.0440 hc         1 OSC       0.061200
     52 H72         19.4340   -12.4670    19.1750 hc         1 OSC       0.061200
     53 H9          18.3030   -15.8450    22.8830 h1         1 OSC       0.098700
     54 H111        22.5690   -14.0140    20.8790 hc         1 OSC       0.046200
     55 H112        22.4270   -12.6700    19.7560 hc         1 OSC       0.046200
     56 H12         20.3270   -16.2990    18.6680 h1         1 OSC       0.040700
     57 H13         17.1970    -9.9880    20.8390 hn         1 OSC       0.316500
     58 H151        18.4010   -15.9400    25.4070 hc         1 OSC       0.066200
     59 H152        17.8390   -14.2840    25.4850 hc         1 OSC       0.066200
     60 H16         15.9290   -15.7080    24.6220 hn         1 OSC       0.353500
     61 H171        22.4350   -14.9190    18.5830 hc         1 OSC       0.046200
     62 H172        20.9890   -13.9960    18.2360 hc         1 OSC       0.046200
     63 H18         22.1530   -16.8540    19.9540 ho         1 OSC       0.436000
     64 H191        15.1470   -10.8300    18.8060 h1         1 OSC       0.060200
     65 H192        15.6830    -9.1760    19.1310 h1         1 OSC       0.060200
     66 H221        13.4650    -9.4410    20.0970 hc         1 OSC       0.049700
     67 H222        14.6410    -9.2410    21.3770 hc         1 OSC       0.049700
     68 H23         19.3510   -12.3960    24.8750 ha         1 OSC       0.120000
     69 H24         20.6970   -16.4990    24.5990 ha         1 OSC       0.120000
     70 H25         13.5130   -16.5250    22.4620 h1         1 OSC       0.054700
     71 H28         21.6990   -11.6150    24.6470 ha         1 OSC       0.113000
     72 H29         23.0410   -15.7080    24.3630 ha         1 OSC       0.113000
     73 H301        14.8570   -18.8580    23.9220 hc         1 OSC       0.064200
     74 H302        14.5360   -18.8080    22.2030 hc         1 OSC       0.064200
     75 H31         13.3860   -15.5510    24.4020 ho         1 OSC       0.516000
     76 H321        12.5960   -10.3560    22.9050 h1         1 OSC       0.045700
     77 H322        14.0860   -11.1930    23.4280 h1         1 OSC       0.045700
     78 H33         13.9760   -12.6830    19.7220 ha         1 OSC       0.225000
     79 H34         23.5470   -13.2670    24.3820 ha         1 OSC       0.111000
     80 H371        13.9090   -14.0710    22.1240 h1         1 OSC       0.067200
     81 H372        12.3460   -14.0880    21.2540 h1         1 OSC       0.067200
     82 H38         12.0620   -18.4810    21.4040 ha         1 OSC       0.114000
     83 H39         13.1270   -19.6550    25.4280 ha         1 OSC       0.114000
     84 H41          9.7710   -19.3800    21.7520 ha         1 OSC       0.107500
     85 H42         10.8350   -20.5560    25.7670 ha         1 OSC       0.107500
     86 H43         12.0320   -14.2010    25.2430 hn         1 OSC       0.388400
     87 H441        10.8970   -11.6810    23.6970 hn         1 OSC       0.462500
     88 H442        10.4420   -12.9710    24.6660 hn         1 OSC       0.462500
     89 H45          9.1520   -20.4190    23.9320 ha         1 OSC       0.106000
@<TRIPOS>BOND
     1     1     2 1   
     2     1     3 1   
     3     1     4 1   
     4     2     5 1   
     5     2     6 1   
     6     2    46 1   
     7     3     7 1   
     8     3     8 1   
     9     3    47 1   
    10     4     9 1   
    11     4    10 2   
    12     5     7 1   
    13     5    11 1   
    14     5    48 1   
    15     6    12 1   
    16     6    49 1   
    17     6    50 1   
    18     7    51 1   
    19     7    52 1   
    20     8    13 1   
    21     8    14 2   
    22     9    15 1   
    23     9    16 1   
    24     9    53 1   
    25    11    17 1   
    26    11    54 1   
    27    11    55 1   
    28    12    17 1   
    29    12    18 1   
    30    12    56 1   
    31    13    19 1   
    32    13    57 1   
    33    15    20 1   
    34    15    58 1   
    35    15    59 1   
    36    16    21 1   
    37    16    60 1   
    38    17    61 1   
    39    17    62 1   
    40    18    63 1   
    41    19    22 1   
    42    19    64 1   
    43    19    65 1   
    44    20    23 ar  
    45    20    24 ar  
    46    21    25 1   
    47    21    26 2   
    48    22    27 1   
    49    22    66 1   
    50    22    67 1   
    51    23    28 ar  
    52    23    68 1   
    53    24    29 ar  
    54    24    69 1   
    55    25    30 1   
    56    25    31 1   
    57    25    70 1   
    58    27    32 1   
    59    27    33 2   
    60    28    34 ar  
    61    28    71 1   
    62    29    34 ar  
    63    29    72 1   
    64    30    35 1   
    65    30    73 1   
    66    30    74 1   
    67    31    75 1   
    68    32    36 1   
    69    32    76 1   
    70    32    77 1   
    71    33    37 1   
    72    33    78 1   
    73    34    79 1   
    74    35    38 ar  
    75    35    39 ar  
    76    36    37 1   
    77    36    40 1   
    78    37    80 1   
    79    37    81 1   
    80    38    41 ar  
    81    38    82 1   
    82    39    42 ar  
    83    39    83 1   
    84    40    43 2   
    85    40    44 1   
    86    41    45 ar  
    87    41    84 1   
    88    42    45 ar  
    89    42    85 1   
    90    43    86 1   
    91    44    87 1   
    92    44    88 1   
    93    45    89 1   
@<TRIPOS>SUBSTRUCTURE
     1 OSC         1 TEMP              0 ****  ****    0 ROOT
