@<TRIPOS>MOLECULE
OSD
   47    49     1     0     0
SMALL
No Charge or Current Charge


@<TRIPOS>ATOM
      1 C02         14.3920     0.3620    23.6500 ca         1 OSD       0.617900
      2 C03         14.8840     1.1340    22.6010 ca         1 OSD      -0.215000
      3 C04         14.1450     2.2530    22.1870 ca         1 OSD       0.007700
      4 C05         12.9320     2.5230    22.8680 ca         1 OSD      -0.124000
      5 C06         12.1230     3.6270    22.5220 ca         1 OSD      -0.077000
      6 C07         10.9260     3.8730    23.2110 ca         1 OSD      -0.123000
      7 C08         10.4990     3.0310    24.2630 cp         1 OSD       0.001000
      8 C09         11.3210     1.9280    24.5970 ca         1 OSD      -0.100000
      9 C10         12.5260     1.6590    23.9230 ca         1 OSD       0.326000
     10 C11         14.6630     3.1180    21.0420 c3         1 OSD      -0.056800
     11 C21          9.2200     3.2950    24.9970 cp         1 OSD      -0.077000
     12 C22          8.4070     2.2320    25.4560 ca         1 OSD      -0.056000
     13 C23          7.2080     2.4790    26.1430 ca         1 OSD      -0.204000
     14 C24          6.7890     3.8040    26.3990 ca         1 OSD       0.162100
     15 C25          7.5820     4.8800    25.9420 ca         1 OSD      -0.114300
     16 C26          8.7830     4.6180    25.2520 ca         1 OSD      -0.048000
     17 C27          7.1660     6.3280    26.1760 c3         1 OSD       0.208100
     18 C30          4.8310     3.1020    27.7750 c3         1 OSD       0.180300
     19 C31          3.4650     3.7500    28.0680 c3         1 OSD      -0.107600
     20 C32          5.5820     2.7170    29.0700 c3         1 OSD      -0.107600
     21 N01         13.2630     0.5880    24.3000 nb         1 OSD      -0.761000
     22 N02         15.0020    -0.7260    24.1220 nv         1 OSD      -1.067900
     23 N28          7.8460     6.9040    27.3500 n8         1 OSD      -0.987200
     24 O29          5.6090     4.0870    27.0670 os         1 OSD      -0.365100
     25 H1          15.8220     0.8710    22.1220 ha         1 OSD       0.117000
     26 H2          12.4050     4.3020    21.7180 ha         1 OSD       0.110000
     27 H3          10.3160     4.7220    22.9140 ha         1 OSD       0.114000
     28 H4          11.0280     1.2710    25.4090 ha         1 OSD       0.129000
     29 H5          13.9500     3.1380    20.2090 hc         1 OSD       0.047700
     30 H6          14.8300     4.1500    21.3730 hc         1 OSD       0.047700
     31 H7          15.6150     2.7440    20.6490 hc         1 OSD       0.047700
     32 H8           8.6990     1.2020    25.2620 ha         1 OSD       0.115000
     33 H9           6.6160     1.6280    26.4620 ha         1 OSD       0.117000
     34 H10          9.3910     5.4560    24.9230 ha         1 OSD       0.117000
     35 H11          7.4230     6.9310    25.2930 h1         1 OSD       0.032700
     36 H12          6.0790     6.4030    26.3220 h1         1 OSD       0.032700
     37 H13          4.6570     2.2110    27.1580 h1         1 OSD       0.043700
     38 H14          2.8180     3.0520    28.6120 hc         1 OSD       0.046700
     39 H15          3.5830     4.6560    28.6750 hc         1 OSD       0.046700
     40 H16          2.9610     4.0220    27.1330 hc         1 OSD       0.046700
     41 H17          6.5390     2.2330    28.8470 hc         1 OSD       0.046700
     42 H18          5.7790     3.6050    29.6830 hc         1 OSD       0.046700
     43 H19          4.9830     2.0170    29.6640 hc         1 OSD       0.046700
     44 H20         14.4170    -1.3090    24.7070 hn         1 OSD       0.476000
     45 H21         15.6440    -1.2080    23.5030 hn         1 OSD       0.476000
     46 H22          7.4770     7.8470    27.5160 hn         1 OSD       0.392500
     47 H23          7.5510     6.3760    28.1790 hn         1 OSD       0.392500
@<TRIPOS>BOND
     1     1     2 ar  
     2     1    21 ar  
     3     1    22 1   
     4     2     3 ar  
     5     2    25 1   
     6     3     4 ar  
     7     3    10 1   
     8     4     5 ar  
     9     4     9 ar  
    10     5     6 ar  
    11     5    26 1   
    12     6     7 ar  
    13     6    27 1   
    14     7     8 ar  
    15     7    11 1   
    16     8     9 ar  
    17     8    28 1   
    18     9    21 ar  
    19    10    29 1   
    20    10    30 1   
    21    10    31 1   
    22    11    12 ar  
    23    11    16 ar  
    24    12    13 ar  
    25    12    32 1   
    26    13    14 ar  
    27    13    33 1   
    28    14    15 ar  
    29    14    24 1   
    30    15    16 ar  
    31    15    17 1   
    32    16    34 1   
    33    17    23 1   
    34    17    35 1   
    35    17    36 1   
    36    18    19 1   
    37    18    20 1   
    38    18    24 1   
    39    18    37 1   
    40    19    38 1   
    41    19    39 1   
    42    19    40 1   
    43    20    41 1   
    44    20    42 1   
    45    20    43 1   
    46    22    44 1   
    47    22    45 1   
    48    23    46 1   
    49    23    47 1   
@<TRIPOS>SUBSTRUCTURE
     1 OSD         1 TEMP              0 ****  ****    0 ROOT
