@<TRIPOS>MOLECULE
OSD
   47    49     1     0     0
SMALL
bcc


@<TRIPOS>ATOM
      1 C02         14.3440     0.3240    23.6320 ca         1 OSD       0.683200
      2 C03         14.8050     1.1310    22.5470 ca         1 OSD      -0.298300
      3 C04         14.0880     2.2190    22.1540 ca         1 OSD       0.007700
      4 C05         12.8810     2.5180    22.8580 ca         1 OSD      -0.189300
      5 C06         12.0550     3.6150    22.5510 ca         1 OSD      -0.095000
      6 C07         10.9050     3.8570    23.2560 ca         1 OSD      -0.141000
      7 C08         10.5170     3.0100    24.3180 cp         1 OSD       0.001000
      8 C09         11.3200     1.9320    24.6300 ca         1 OSD      -0.183300
      9 C10         12.5050     1.6570    23.9170 ca         1 OSD       0.456600
     10 C11         14.5500     3.0830    21.0230 c3         1 OSD      -0.056800
     11 C21          9.2740     3.2800    25.0660 cp         1 OSD      -0.077000
     12 C22          8.4980     2.2500    25.5860 ca         1 OSD      -0.074000
     13 C23          7.3260     2.5060    26.2830 ca         1 OSD      -0.222000
     14 C24          6.8980     3.8180    26.4750 ca         1 OSD       0.162100
     15 C25          7.6630     4.8790    25.9640 ca         1 OSD      -0.114300
     16 C26          8.8280     4.5880    25.2760 ca         1 OSD      -0.066000
     17 C27          7.2330     6.3060    26.1810 c3         1 OSD       0.208100
     18 C30          4.9370     3.1920    27.7440 c3         1 OSD       0.157100
     19 C31          3.5820     3.8450    27.9340 c3         1 OSD      -0.107600
     20 C32          5.5350     2.7370    29.0640 c3         1 OSD      -0.107600
     21 N01         13.2370     0.5780    24.2870 nb         1 OSD      -0.761000
     22 N02         15.1000    -0.7300    24.0320 nv         1 OSD      -0.957500
     23 N28          7.4650     6.7300    27.5600 n8         1 OSD      -0.876800
     24 O29          5.7680     4.1710    27.1140 os         1 OSD      -0.341900
     25 H1          15.7300     0.8690    22.0460 ha         1 OSD       0.135000
     26 H2          12.3240     4.2790    21.7390 ha         1 OSD       0.128000
     27 H3          10.2800     4.6940    22.9760 ha         1 OSD       0.132000
     28 H4          11.0690     1.2730    25.4520 ha         1 OSD       0.147000
     29 H5          13.8060     3.1240    20.2250 hc         1 OSD       0.047700
     30 H6          14.7180     4.1090    21.3540 hc         1 OSD       0.047700
     31 H7          15.4800     2.7110    20.5970 hc         1 OSD       0.047700
     32 H8           8.7890     1.2180    25.4330 ha         1 OSD       0.133000
     33 H9           6.7580     1.6660    26.6570 ha         1 OSD       0.135000
     34 H10          9.4150     5.4190    24.9010 ha         1 OSD       0.135000
     35 H11          7.8320     6.9460    25.5300 h1         1 OSD       0.032700
     36 H12          6.1920     6.4280    25.8540 h1         1 OSD       0.032700
     37 H13          4.8160     2.3340    27.0730 h1         1 OSD       0.043700
     38 H14          2.8940     3.1320    28.3890 hc         1 OSD       0.046700
     39 H15          3.6500     4.7130    28.5910 hc         1 OSD       0.046700
     40 H16          3.1550     4.1620    26.9820 hc         1 OSD       0.046700
     41 H17          6.5230     2.2920    28.9450 hc         1 OSD       0.046700
     42 H18          5.6200     3.5750    29.7580 hc         1 OSD       0.046700
     43 H19          4.8890     1.9870    29.5200 hc         1 OSD       0.046700
     44 H20         14.6650    -1.4040    24.6400 hn         1 OSD       0.420800
     45 H21         15.7830    -1.1060    23.3980 hn         1 OSD       0.420800
     46 H22          7.2370     7.7130    27.6380 hn         1 OSD       0.337300
     47 H23          6.8090     6.2540    28.1670 hn         1 OSD       0.337300
@<TRIPOS>BOND
     1     1     2 ar  
     2     1    21 ar  
     3     1    22 1   
     4     2     3 ar  
     5     2    25 1   
     6     3     4 ar  
     7     3    10 1   
     8     4     5 ar  
     9     4     9 ar  
    10     5     6 ar  
    11     5    26 1   
    12     6     7 ar  
    13     6    27 1   
    14     7     8 ar  
    15     7    11 1   
    16     8     9 ar  
    17     8    28 1   
    18     9    21 ar  
    19    10    29 1   
    20    10    30 1   
    21    10    31 1   
    22    11    12 ar  
    23    11    16 ar  
    24    12    13 ar  
    25    12    32 1   
    26    13    14 ar  
    27    13    33 1   
    28    14    15 ar  
    29    14    24 1   
    30    15    16 ar  
    31    15    17 1   
    32    16    34 1   
    33    17    23 1   
    34    17    35 1   
    35    17    36 1   
    36    18    19 1   
    37    18    20 1   
    38    18    24 1   
    39    18    37 1   
    40    19    38 1   
    41    19    39 1   
    42    19    40 1   
    43    20    41 1   
    44    20    42 1   
    45    20    43 1   
    46    22    44 1   
    47    22    45 1   
    48    23    46 1   
    49    23    47 1   
@<TRIPOS>SUBSTRUCTURE
     1 OSD         1 TEMP              0 ****  ****    0 ROOT
