@<TRIPOS>MOLECULE
OSF
   30    29     1     0     0
SMALL
bcc


@<TRIPOS>ATOM
      1 S            3.9200    -0.0510     0.0970 s6         1 OSF       1.501300
      2 O1           2.4180    -0.6690    -0.1240 os         1 OSF      -0.580500
      3 O2           4.0740     0.9960    -0.9170 o          1 OSF      -0.713200
      4 O3           3.9420     0.4560     1.4720 o          1 OSF      -0.713200
      5 O4           4.7410    -1.2400    -0.1240 o          1 OSF      -0.713200
      6 C1           1.3210     0.2420    -0.0850 c3         1 OSF       0.192400
      7 C2           0.0360    -0.5610    -0.0670 c3         1 OSF      -0.082400
      8 C3          -1.1910     0.3440    -0.0550 c3         1 OSF      -0.078400
      9 C4          -2.4980    -0.4380    -0.0350 c3         1 OSF      -0.074400
     10 C5          -3.7330     0.4550    -0.0270 c3         1 OSF      -0.075400
     11 C6          -5.0380    -0.3310    -0.0080 c3         1 OSF      -0.076400
     12 C7          -6.2780     0.5550    -0.0020 c3         1 OSF      -0.075400
     13 C8          -7.5720    -0.2470     0.0180 c3         1 OSF      -0.087100
     14 H1           1.3750     0.8750     0.8070 h1         1 OSF       0.027700
     15 H1A          1.3420     0.8980    -0.9610 h1         1 OSF       0.027700
     16 H2          -0.0010    -1.2140    -0.9450 hc         1 OSF       0.045200
     17 H2A          0.0220    -1.2100     0.8140 hc         1 OSF       0.045200
     18 H3          -1.1500     1.0060     0.8170 hc         1 OSF       0.033700
     19 H3A         -1.1720     0.9970    -0.9340 hc         1 OSF       0.033700
     20 H4          -2.5360    -1.1020    -0.9060 hc         1 OSF       0.035200
     21 H4A         -2.5170    -1.0910     0.8440 hc         1 OSF       0.035200
     22 H5          -3.6940     1.1190     0.8440 hc         1 OSF       0.035200
     23 H5A         -3.7140     1.1080    -0.9070 hc         1 OSF       0.035200
     24 H6          -5.0740    -0.9970    -0.8770 hc         1 OSF       0.035700
     25 H6A         -5.0560    -0.9830     0.8730 hc         1 OSF       0.035700
     26 H7          -6.2440     1.2190     0.8680 hc         1 OSF       0.035200
     27 H7A         -6.2620     1.2060    -0.8810 hc         1 OSF       0.035200
     28 H8          -7.6270    -0.8820     0.9040 hc         1 OSF       0.027700
     29 H8A         -8.4500     0.4000     0.0210 hc         1 OSF       0.027700
     30 H8B         -7.6440    -0.8970    -0.8570 hc         1 OSF       0.027700
@<TRIPOS>BOND
     1     1     2 1   
     2     1     3 1   
     3     1     4 1   
     4     1     5 1   
     5     2     6 1   
     6     6     7 1   
     7     6    14 1   
     8     6    15 1   
     9     7     8 1   
    10     7    16 1   
    11     7    17 1   
    12     8     9 1   
    13     8    18 1   
    14     8    19 1   
    15     9    10 1   
    16     9    20 1   
    17     9    21 1   
    18    10    11 1   
    19    10    22 1   
    20    10    23 1   
    21    11    12 1   
    22    11    24 1   
    23    11    25 1   
    24    12    13 1   
    25    12    26 1   
    26    12    27 1   
    27    13    28 1   
    28    13    29 1   
    29    13    30 1   
@<TRIPOS>SUBSTRUCTURE
     1 OSF         1 TEMP              0 ****  ****    0 ROOT
