@<TRIPOS>MOLECULE
OSF
   30    29     1     0     0
SMALL
No Charge or Current Charge


@<TRIPOS>ATOM
      1 S            3.9860    -0.0580    -0.0010 s6         1 OSF       1.501300
      2 O1           2.4720    -0.6940    -0.0240 os         1 OSF      -0.603700
      3 O2           4.0450     0.7760    -1.2100 o          1 OSF      -0.713200
      4 O3           4.0400     0.6990     1.2580 o          1 OSF      -0.713200
      5 O4           4.8610    -1.2390    -0.0360 o          1 OSF      -0.713200
      6 C1           1.3910     0.2480     0.0040 c3         1 OSF       0.215600
      7 C2           0.0730    -0.5530    -0.0240 c3         1 OSF      -0.082400
      8 C3          -1.1810     0.3490     0.0020 c3         1 OSF      -0.078400
      9 C4          -2.5020    -0.4510    -0.0260 c3         1 OSF      -0.074400
     10 C5          -3.7550     0.4520    -0.0000 c3         1 OSF      -0.075400
     11 C6          -5.0760    -0.3470    -0.0280 c3         1 OSF      -0.076400
     12 C7          -6.3290     0.5550    -0.0020 c3         1 OSF      -0.075400
     13 C8          -7.6480    -0.2420    -0.0290 c3         1 OSF      -0.087100
     14 H1           1.4210     0.8600     0.9150 h1         1 OSF       0.027700
     15 H1A          1.4240     0.9160    -0.8670 h1         1 OSF       0.027700
     16 H2           0.0520    -1.1750    -0.9270 hc         1 OSF       0.045200
     17 H2A          0.0480    -1.2310     0.8380 hc         1 OSF       0.045200
     18 H3          -1.1560     0.9730     0.9040 hc         1 OSF       0.033700
     19 H3A         -1.1530     1.0290    -0.8590 hc         1 OSF       0.033700
     20 H4          -2.5260    -1.0750    -0.9280 hc         1 OSF       0.035200
     21 H4A         -2.5300    -1.1300     0.8350 hc         1 OSF       0.035200
     22 H5          -3.7310     1.0760     0.9020 hc         1 OSF       0.035200
     23 H5A         -3.7270     1.1310    -0.8610 hc         1 OSF       0.035200
     24 H6          -5.1010    -0.9720    -0.9300 hc         1 OSF       0.035700
     25 H6A         -5.1040    -1.0270     0.8330 hc         1 OSF       0.035700
     26 H7          -6.3100     1.1790     0.9000 hc         1 OSF       0.035200
     27 H7A         -6.3060     1.2350    -0.8630 hc         1 OSF       0.035200
     28 H8          -7.7170    -0.9080     0.8400 hc         1 OSF       0.027700
     29 H8A         -8.5070     0.4390    -0.0100 hc         1 OSF       0.027700
     30 H8B         -7.7140    -0.8520    -0.9390 hc         1 OSF       0.027700
@<TRIPOS>BOND
     1     1     2 1   
     2     1     3 1   
     3     1     4 1   
     4     1     5 1   
     5     2     6 1   
     6     6     7 1   
     7     6    14 1   
     8     6    15 1   
     9     7     8 1   
    10     7    16 1   
    11     7    17 1   
    12     8     9 1   
    13     8    18 1   
    14     8    19 1   
    15     9    10 1   
    16     9    20 1   
    17     9    21 1   
    18    10    11 1   
    19    10    22 1   
    20    10    23 1   
    21    11    12 1   
    22    11    24 1   
    23    11    25 1   
    24    12    13 1   
    25    12    26 1   
    26    12    27 1   
    27    13    28 1   
    28    13    29 1   
    29    13    30 1   
@<TRIPOS>SUBSTRUCTURE
     1 OSF         1 TEMP              0 ****  ****    0 ROOT
