@<TRIPOS>MOLECULE
OSG
   47    49     1     0     0
SMALL
abcg2


@<TRIPOS>ATOM
      1 C10         12.4120     1.7060    23.8700 ca         1 OSG       0.325000
      2 C22          9.2940     2.9780    26.6680 ca         1 OSG      -0.081000
      3 C23          8.1700     3.2280    27.4390 ca         1 OSG      -0.142000
      4 C24          7.0830     3.9060    26.9010 ca         1 OSG       0.138100
      5 C26          8.2570     4.0880    24.8230 ca         1 OSG      -0.088000
      6 C02         14.1330     0.2890    23.3540 ca         1 OSG       0.618900
      7 C03         14.6040     1.1750    22.3370 ca         1 OSG      -0.214000
      8 C04         13.9520     2.3450    22.0960 ca         1 OSG       0.007700
      9 C05         12.8020     2.6480    22.8890 ca         1 OSG      -0.123000
     10 C06         12.0500     3.8280    22.7430 ca         1 OSG      -0.077000
     11 C07         10.9530     4.0710    23.5280 ca         1 OSG      -0.123000
     12 C08         10.5450     3.1370    24.5060 cp         1 OSG      -0.009000
     13 C09         11.2750     1.9770    24.6590 ca         1 OSG      -0.096000
     14 C11         14.4230     3.2890    21.0350 c3         1 OSG      -0.056800
     15 C21          9.3560     3.4020    25.3410 cp         1 OSG      -0.047000
     16 C25          7.1160     4.3420    25.5730 ca         1 OSG      -0.100300
     17 C27          5.9360     5.0320    24.9430 c3         1 OSG       0.200100
     18 C30          5.0880     3.0980    27.8540 c3         1 OSG       0.166600
     19 C31          3.8560     3.6110    28.5680 c3         1 OSG      -0.073400
     20 C32          3.0920     4.6690    27.7820 c3         1 OSG      -0.083100
     21 N01         13.0750     0.5440    24.0850 nb         1 OSG      -0.760000
     22 N02         14.8310    -0.8480    23.6060 nv         1 OSG      -1.067900
     23 N28          4.9220     4.0590    24.5560 n8         1 OSG      -0.996200
     24 H1          10.1380     2.4700    27.1180 ha         1 OSG       0.119000
     25 H2           8.1450     2.9130    28.4750 ha         1 OSG       0.123000
     26 H3           8.2720     4.4170    23.7900 ha         1 OSG       0.110000
     27 H4          15.4850     0.9060    21.7650 ha         1 OSG       0.118000
     28 H5          12.3450     4.5650    22.0070 ha         1 OSG       0.110000
     29 H6          10.4110     5.0000    23.4100 ha         1 OSG       0.114000
     30 H7          10.9790     1.2270    25.3830 ha         1 OSG       0.130000
     31 H8          13.6560     3.4420    20.2740 hc         1 OSG       0.048367
     32 H9          14.6560     4.2690    21.4540 hc         1 OSG       0.048367
     33 H10         15.3170     2.9130    20.5420 hc         1 OSG       0.048367
     34 H11          6.3010     5.6380    24.1030 h1         1 OSG       0.039200
     35 H12          5.4850     5.7240    25.6550 h1         1 OSG       0.039200
     36 H13          4.8130     2.6900    26.8760 h1         1 OSG       0.038700
     37 H14          5.5630     2.3020    28.4400 h1         1 OSG       0.038700
     38 H15          4.1330     3.9960    29.5540 hc         1 OSG       0.043700
     39 H16          3.2110     2.7480    28.7500 hc         1 OSG       0.043700
     40 H17          2.1700     4.9450    28.2930 hc         1 OSG       0.034367
     41 H18          3.6810     5.5760    27.6490 hc         1 OSG       0.034367
     42 H19          2.8300     4.3020    26.7880 hc         1 OSG       0.034367
     43 H20         14.3800    -1.5520    24.1660 hn         1 OSG       0.477000
     44 H21         15.4570    -1.1970    22.9010 hn         1 OSG       0.477000
     45 H22          4.1000     4.5500    24.2290 hn         1 OSG       0.392500
     46 H23          5.2580     3.5230    23.7650 hn         1 OSG       0.392500
     47 O29          6.0010     4.1810    27.6750 os         1 OSG      -0.373100
@<TRIPOS>BOND
     1     1     9 ar  
     2     1    13 ar  
     3     1    21 ar  
     4     2     3 ar  
     5     2    15 ar  
     6     2    24 1   
     7     3     4 ar  
     8     3    25 1   
     9     4    16 ar  
    10     4    47 1   
    11     5    15 ar  
    12     5    16 ar  
    13     5    26 1   
    14     6     7 ar  
    15     6    21 ar  
    16     6    22 1   
    17     7     8 ar  
    18     7    27 1   
    19     8     9 ar  
    20     8    14 1   
    21     9    10 ar  
    22    10    11 ar  
    23    10    28 1   
    24    11    12 ar  
    25    11    29 1   
    26    12    13 ar  
    27    12    15 1   
    28    13    30 1   
    29    14    31 1   
    30    14    32 1   
    31    14    33 1   
    32    16    17 1   
    33    17    23 1   
    34    17    34 1   
    35    17    35 1   
    36    18    19 1   
    37    18    36 1   
    38    18    37 1   
    39    18    47 1   
    40    19    20 1   
    41    19    38 1   
    42    19    39 1   
    43    20    40 1   
    44    20    41 1   
    45    20    42 1   
    46    22    43 1   
    47    22    44 1   
    48    23    45 1   
    49    23    46 1   
@<TRIPOS>SUBSTRUCTURE
     1 OSG         1 TEMP              0 ****  ****    0 ROOT
