@<TRIPOS>MOLECULE
OSG
   47    49     1     0     0
SMALL
No Charge or Current Charge


@<TRIPOS>ATOM
      1 C10         12.3300     1.5940    23.7420 ca         1 OSG       0.325000
      2 C22          9.0050     2.7810    26.4220 ca         1 OSG      -0.081000
      3 C23          7.8200     3.0190    27.1380 ca         1 OSG      -0.142000
      4 C24          6.8070     3.8390    26.5920 ca         1 OSG       0.138100
      5 C26          8.1920     4.1740    24.6120 ca         1 OSG      -0.088000
      6 C02         14.0190     0.1570    23.1740 ca         1 OSG       0.618900
      7 C03         14.6590     1.0900    22.3620 ca         1 OSG      -0.214000
      8 C04         14.0940     2.3680    22.2330 ca         1 OSG       0.007700
      9 C05         12.8950     2.6260    22.9430 ca         1 OSG      -0.123000
     10 C06         12.2540     3.8820    22.8740 ca         1 OSG      -0.077000
     11 C07         11.0670     4.1140    23.5850 ca         1 OSG      -0.123000
     12 C08         10.4840     3.1050    24.3860 cp         1 OSG      -0.009000
     13 C09         11.1400     1.8520    24.4460 ca         1 OSG      -0.096000
     14 C11         14.7750     3.4090    21.3510 c3         1 OSG      -0.056800
     15 C21          9.2170     3.3550    25.1460 cp         1 OSG      -0.047000
     16 C25          6.9940     4.4160    25.3150 ca         1 OSG      -0.100300
     17 C27          5.9330     5.3140    24.6810 c3         1 OSG       0.200100
     18 C30          5.3560     3.5410    28.5770 c3         1 OSG       0.166600
     19 C31          3.9670     4.0390    29.0270 c3         1 OSG      -0.073400
     20 C32          2.8060     3.5530    28.1330 c3         1 OSG      -0.083100
     21 N01         12.8990     0.3700    23.8450 nb         1 OSG      -0.760000
     22 N02         14.4570    -1.0880    23.3640 nv         1 OSG      -1.067900
     23 N28          5.2450     4.6440    23.5580 n8         1 OSG      -0.996200
     24 H1           9.7740     2.1580    26.8720 ha         1 OSG       0.119000
     25 H2           7.7100     2.5620    28.1160 ha         1 OSG       0.123000
     26 H3           8.3240     4.6190    23.6290 ha         1 OSG       0.110000
     27 H4          15.5760     0.8260    21.8450 ha         1 OSG       0.118000
     28 H5          12.6630     4.6910    22.2740 ha         1 OSG       0.110000
     29 H6          10.6020     5.0950    23.5230 ha         1 OSG       0.114000
     30 H7          10.7100     1.0520    25.0410 ha         1 OSG       0.130000
     31 H8          14.1120     3.7340    20.5400 hc         1 OSG       0.048367
     32 H9          15.0600     4.2930    21.9330 hc         1 OSG       0.048367
     33 H10         15.6870     3.0150    20.8880 hc         1 OSG       0.048367
     34 H11          6.4150     6.2260    24.3010 h1         1 OSG       0.039200
     35 H12          5.1820     5.6220    25.4200 h1         1 OSG       0.039200
     36 H13          5.3570     2.4430    28.5400 h1         1 OSG       0.038700
     37 H14          6.1090     3.8670    29.3060 h1         1 OSG       0.038700
     38 H15          3.9680     5.1350    29.0590 hc         1 OSG       0.043700
     39 H16          3.7890     3.6950    30.0530 hc         1 OSG       0.043700
     40 H17          1.8470     3.9100    28.5250 hc         1 OSG       0.034367
     41 H18          2.9160     3.9280    27.1080 hc         1 OSG       0.034367
     42 H19          2.7750     2.4570    28.0990 hc         1 OSG       0.034367
     43 H20         13.7720    -1.7110    23.7740 hn         1 OSG       0.477000
     44 H21         15.0590    -1.4860    22.6510 hn         1 OSG       0.477000
     45 H22          4.6170     5.3170    23.1040 hn         1 OSG       0.392500
     46 H23          5.9370     4.4250    22.8320 hn         1 OSG       0.392500
     47 O29          5.6350     4.0980    27.2790 os         1 OSG      -0.373100
@<TRIPOS>BOND
     1     1     9 ar  
     2     1    13 ar  
     3     1    21 ar  
     4     2     3 ar  
     5     2    15 ar  
     6     2    24 1   
     7     3     4 ar  
     8     3    25 1   
     9     4    16 ar  
    10     4    47 1   
    11     5    15 ar  
    12     5    16 ar  
    13     5    26 1   
    14     6     7 ar  
    15     6    21 ar  
    16     6    22 1   
    17     7     8 ar  
    18     7    27 1   
    19     8     9 ar  
    20     8    14 1   
    21     9    10 ar  
    22    10    11 ar  
    23    10    28 1   
    24    11    12 ar  
    25    11    29 1   
    26    12    13 ar  
    27    12    15 1   
    28    13    30 1   
    29    14    31 1   
    30    14    32 1   
    31    14    33 1   
    32    16    17 1   
    33    17    23 1   
    34    17    34 1   
    35    17    35 1   
    36    18    19 1   
    37    18    36 1   
    38    18    37 1   
    39    18    47 1   
    40    19    20 1   
    41    19    38 1   
    42    19    39 1   
    43    20    40 1   
    44    20    41 1   
    45    20    42 1   
    46    22    43 1   
    47    22    44 1   
    48    23    45 1   
    49    23    46 1   
@<TRIPOS>SUBSTRUCTURE
     1 OSG         1 TEMP              0 ****  ****    0 ROOT
