@<TRIPOS>MOLECULE
OSI
   42    45     1     0     0
SMALL
No Charge or Current Charge


@<TRIPOS>ATOM
      1 N1           6.1370    -0.3510    17.7790 nb         1 OSI      -0.652000
      2 C4          11.3100     0.3770    23.9520 ca         1 OSI       0.153100
      3 C5          12.4890     1.1270    24.0930 ca         1 OSI      -0.132000
      4 C6          13.4390     1.1580    23.0620 ca         1 OSI      -0.063000
      5 C7          13.2120     0.4230    21.8910 ca         1 OSI       0.093000
      6 C8          12.0290    -0.3180    21.7360 ca         1 OSI      -0.062000
      7 C10          9.0450    -0.8680    21.1520 c          1 OSI       0.601100
      8 C13          5.1280     0.5220    17.9930 ca         1 OSI       0.360900
      9 C15          3.8440     2.0630    19.3900 ca         1 OSI      -0.084000
     10 C17          4.5190     2.4490    21.6950 ca         1 OSI      -0.093000
     11 O1           9.6140    -1.1640    20.1080 o          1 OSI      -0.567100
     12 C1           9.7060    -1.1320    22.5680 c6         1 OSI      -0.065700
     13 C9          11.0340    -0.3280    22.7460 ca         1 OSI      -0.141300
     14 O           10.4510     0.3420    25.0280 os         1 OSI      -0.343100
     15 C3           9.4620    -0.6970    25.0910 c6         1 OSI       0.162600
     16 C2           8.7280    -0.7740    23.7450 c6         1 OSI      -0.106400
     17 C           10.0510    -2.6570    22.6310 c3         1 OSI      -0.093100
     18 C11          6.8710     0.0000    20.0830 ca         1 OSI      -0.078000
     19 C19          5.8020     0.9050    20.2980 ca         1 OSI      -0.001000
     20 C18          5.5930     1.5560    21.5360 ca         1 OSI      -0.087000
     21 C16          3.6450     2.7020    20.6250 ca         1 OSI      -0.106000
     22 C14          4.9190     1.1670    19.2260 ca         1 OSI      -0.091000
     23 C12          6.9830    -0.6010    18.8040 ca         1 OSI       0.311900
     24 H1          12.6730     1.6710    25.0160 ha         1 OSI       0.134000
     25 H2          14.3550     1.7320    23.1770 ha         1 OSI       0.133000
     26 H3          11.9080    -0.8890    20.8220 ha         1 OSI       0.123000
     27 H4           4.4640     0.7050    17.1490 h4         1 OSI       0.022100
     28 H5           3.1650     2.2640    18.5650 ha         1 OSI       0.118000
     29 H6           4.3640     2.9460    22.6500 ha         1 OSI       0.115000
     30 H7           8.7560    -0.4670    25.9010 h1         1 OSI       0.058200
     31 H8           9.9530    -1.6510    25.3270 h1         1 OSI       0.058200
     32 H9           8.2730     0.2140    23.5920 hc         1 OSI       0.073700
     33 H10          7.9030    -1.4970    23.8080 hc         1 OSI       0.073700
     34 H11         10.5510    -2.9250    23.5680 hc         1 OSI       0.045367
     35 H12          9.1490    -3.2750    22.5480 hc         1 OSI       0.045367
     36 H13         10.7250    -2.9530    21.8180 hc         1 OSI       0.045367
     37 H14          7.4120    -0.0800    22.0650 hn         1 OSI       0.160000
     38 H15          6.2540     1.3860    22.3810 ha         1 OSI       0.121000
     39 H16          2.8150     3.3930    20.7520 ha         1 OSI       0.117000
     40 H17          7.7570    -1.3320    18.5820 h4         1 OSI       0.021100
     41 N            7.7730    -0.3020    21.1470 ns         1 OSI      -0.168000
     42 Cl          14.4170     0.4260    20.6100 cl         1 OSI      -0.211000
@<TRIPOS>BOND
     1     1     8 ar  
     2     1    23 ar  
     3     2     3 ar  
     4     2    13 ar  
     5     2    14 1   
     6     3     4 ar  
     7     3    24 1   
     8     4     5 ar  
     9     4    25 1   
    10     5     6 ar  
    11     5    42 1   
    12     6    13 ar  
    13     6    26 1   
    14     7    11 2   
    15     7    12 1   
    16     7    41 1   
    17     8    22 ar  
    18     8    27 1   
    19     9    21 ar  
    20     9    22 ar  
    21     9    28 1   
    22    10    20 ar  
    23    10    21 ar  
    24    10    29 1   
    25    12    13 1   
    26    12    16 1   
    27    12    17 1   
    28    14    15 1   
    29    15    16 1   
    30    15    30 1   
    31    15    31 1   
    32    16    32 1   
    33    16    33 1   
    34    17    34 1   
    35    17    35 1   
    36    17    36 1   
    37    18    19 ar  
    38    18    23 ar  
    39    18    41 1   
    40    19    20 ar  
    41    19    22 ar  
    42    20    38 1   
    43    21    39 1   
    44    23    40 1   
    45    37    41 1   
@<TRIPOS>SUBSTRUCTURE
     1 OSI         1 TEMP              0 ****  ****    0 ROOT
