@<TRIPOS>MOLECULE
OSI
   42    45     1     0     0
SMALL
abcg2


@<TRIPOS>ATOM
      1 N1           6.9410    -0.0260    17.6040 nb         1 OSI      -0.652000
      2 C4          11.6640     0.2200    23.8330 ca         1 OSI       0.153100
      3 C5          13.0070     0.4950    23.5640 ca         1 OSI      -0.132000
      4 C6          13.5400     0.2540    22.3100 ca         1 OSI      -0.063000
      5 C7          12.7160    -0.2740    21.3220 ca         1 OSI       0.093000
      6 C8          11.3830    -0.5400    21.5730 ca         1 OSI      -0.062000
      7 C10          8.5620     0.1480    21.9550 c          1 OSI       0.601100
      8 C13          5.8540     0.6980    17.7380 ca         1 OSI       0.360900
      9 C15          4.1120     1.8280    19.0860 ca         1 OSI      -0.084000
     10 C17          4.2280     1.6770    21.4910 ca         1 OSI      -0.093000
     11 O1           8.5900     1.3670    21.8330 o          1 OSI      -0.567100
     12 C1           9.3490    -0.5570    23.0830 c6         1 OSI      -0.065700
     13 C9          10.8310    -0.2880    22.8300 ca         1 OSI      -0.141300
     14 O           11.2340     0.4900    25.0960 os         1 OSI      -0.343100
     15 C3           9.9810    -0.1020    25.4780 c6         1 OSI       0.162600
     16 C2           8.9320     0.1120    24.4100 c6         1 OSI      -0.106400
     17 C            9.1040    -2.0730    23.1560 c3         1 OSI      -0.093100
     18 C11          7.1310    -0.1470    19.9990 ca         1 OSI      -0.078000
     19 C19          5.9470     0.6160    20.1720 ca         1 OSI      -0.001000
     20 C18          5.3810     0.9350    21.4270 ca         1 OSI      -0.087000
     21 C16          3.5900     2.1340    20.3160 ca         1 OSI      -0.106000
     22 C14          5.2950     1.0600    18.9880 ca         1 OSI      -0.091000
     23 C12          7.5720    -0.4350    18.7330 ca         1 OSI       0.311900
     24 H1          13.6250     0.8970    24.3560 ha         1 OSI       0.134000
     25 H2          14.5810     0.4640    22.1050 ha         1 OSI       0.133000
     26 H3          10.7590    -0.9360    20.7820 ha         1 OSI       0.123000
     27 H4           5.3610     1.0310    16.8290 h4         1 OSI       0.022100
     28 H5           3.6270     2.1630    18.1770 ha         1 OSI       0.118000
     29 H6           3.7980     1.9170    22.4550 ha         1 OSI       0.115000
     30 H7           9.7020     0.3880    26.4080 h1         1 OSI       0.058200
     31 H8          10.1470    -1.1640    25.6780 h1         1 OSI       0.058200
     32 H9           8.8040     1.1820    24.2520 hc         1 OSI       0.073700
     33 H10          7.9770    -0.2970    24.7460 hc         1 OSI       0.073700
     34 H11          9.6580    -2.4950    23.9940 hc         1 OSI       0.045367
     35 H12          8.0450    -2.2910    23.3090 hc         1 OSI       0.045367
     36 H13          9.4520    -2.5830    22.2560 hc         1 OSI       0.045367
     37 H14          7.9520    -1.6440    21.1900 hn         1 OSI       0.160000
     38 H15          5.8590     0.5880    22.3310 ha         1 OSI       0.121000
     39 H16          2.6840     2.7210    20.3940 ha         1 OSI       0.117000
     40 H17          8.4750    -1.0220    18.6000 h4         1 OSI       0.021100
     41 N            7.8500    -0.6450    21.1180 ns         1 OSI      -0.168000
     42 CL          13.3760    -0.6000    19.7290 cl         1 OSI      -0.211000
@<TRIPOS>BOND
     1     1     8 ar  
     2     1    23 ar  
     3     2     3 ar  
     4     2    13 ar  
     5     2    14 1   
     6     3     4 ar  
     7     3    24 1   
     8     4     5 ar  
     9     4    25 1   
    10     5     6 ar  
    11     5    42 1   
    12     6    13 ar  
    13     6    26 1   
    14     7    11 2   
    15     7    12 1   
    16     7    41 1   
    17     8    22 ar  
    18     8    27 1   
    19     9    21 ar  
    20     9    22 ar  
    21     9    28 1   
    22    10    20 ar  
    23    10    21 ar  
    24    10    29 1   
    25    12    13 1   
    26    12    16 1   
    27    12    17 1   
    28    14    15 1   
    29    15    16 1   
    30    15    30 1   
    31    15    31 1   
    32    16    32 1   
    33    16    33 1   
    34    17    34 1   
    35    17    35 1   
    36    17    36 1   
    37    18    19 ar  
    38    18    23 ar  
    39    18    41 1   
    40    19    20 ar  
    41    19    22 ar  
    42    20    38 1   
    43    21    39 1   
    44    23    40 1   
    45    37    41 1   
@<TRIPOS>SUBSTRUCTURE
     1 OSI         1 TEMP              0 ****  ****    0 ROOT
