@<TRIPOS>MOLECULE
OSJ
   44    46     1     0     0
SMALL
bcc


@<TRIPOS>ATOM
      1 N28        123.5450   255.5460   360.5800 n8         1 OSJ      -0.871800
      2 C27        122.3170   255.8060   359.8410 c3         1 OSJ       0.207100
      3 C25        121.7500   254.5250   359.2950 ca         1 OSJ      -0.124300
      4 C24        122.3000   253.9150   358.1570 ca         1 OSJ       0.177100
      5 O29        123.3240   254.5610   357.5750 os         1 OSJ      -0.307900
      6 C30        123.8410   254.1100   356.3320 c3         1 OSJ       0.137400
      7 C31        122.9490   254.4650   355.1580 c3         1 OSJ      -0.129100
      8 C23        121.7690   252.7100   357.7020 ca         1 OSJ      -0.226000
      9 C22        120.7180   252.1080   358.3770 ca         1 OSJ      -0.071000
     10 C21        120.1610   252.6850   359.5120 cp         1 OSJ      -0.081000
     11 C26        120.7000   253.8980   359.9450 ca         1 OSJ      -0.080000
     12 C08        119.0420   252.0480   360.2310 cp         1 OSJ      -0.001000
     13 C09        118.9630   250.6780   360.3540 ca         1 OSJ      -0.182300
     14 C10        117.8950   250.0550   361.0300 ca         1 OSJ       0.455600
     15 C05        116.8840   250.8610   361.6040 ca         1 OSJ      -0.187300
     16 C06        116.9780   252.2600   361.4750 ca         1 OSJ      -0.095000
     17 C07        118.0230   252.8390   360.8070 ca         1 OSJ      -0.142000
     18 N01        117.8950   248.7030   361.1130 nb         1 OSJ      -0.759000
     19 C02        116.9030   248.1210   361.7330 ca         1 OSJ       0.680200
     20 N02        116.8780   246.7570   361.7620 nv         1 OSJ      -0.958500
     21 C03        115.8350   248.8440   362.3410 ca         1 OSJ      -0.294300
     22 C04        115.8180   250.2030   362.2870 ca         1 OSJ       0.006700
     23 C11        114.7140   250.9890   362.9210 c3         1 OSJ      -0.056800
     24 H1         123.9280   256.4250   360.9030 hn         1 OSJ       0.333800
     25 H2         123.3200   255.0240   361.4180 hn         1 OSJ       0.333800
     26 H4         122.5500   256.4900   359.0240 h1         1 OSJ       0.033700
     27 H5         121.5410   256.3000   360.4410 h1         1 OSJ       0.033700
     28 H6         124.0510   253.0360   356.3590 h1         1 OSJ       0.053200
     29 H7         124.8030   254.6120   356.2310 h1         1 OSJ       0.053200
     30 H8         123.3660   254.0420   354.2450 hc         1 OSJ       0.045367
     31 H9         121.9380   254.0750   355.2690 hc         1 OSJ       0.045367
     32 H10        122.8840   255.5450   355.0290 hc         1 OSJ       0.045367
     33 H11        122.1490   252.2220   356.8160 ha         1 OSJ       0.136000
     34 H12        120.3180   251.1820   357.9840 ha         1 OSJ       0.134000
     35 H13        120.3020   254.3720   360.8360 ha         1 OSJ       0.128000
     36 H14        119.7390   250.0400   359.9490 ha         1 OSJ       0.148000
     37 H15        116.2110   252.8950   361.8990 ha         1 OSJ       0.128000
     38 H16        118.0540   253.9160   360.6990 ha         1 OSJ       0.131000
     39 H17        117.7200   246.2880   361.4770 hn         1 OSJ       0.419300
     40 H18        116.3560   246.2990   362.4870 hn         1 OSJ       0.419300
     41 H19        115.0350   248.3040   362.8350 ha         1 OSJ       0.137000
     42 H20        114.1910   251.6030   362.1850 hc         1 OSJ       0.048033
     43 H21        113.9800   250.3370   363.3910 hc         1 OSJ       0.048033
     44 H22        115.0990   251.6650   363.6860 hc         1 OSJ       0.048033
@<TRIPOS>BOND
     1     1     2 1   
     2     1    24 1   
     3     1    25 1   
     4     2     3 1   
     5     2    26 1   
     6     2    27 1   
     7     3     4 ar  
     8     3    11 ar  
     9     4     5 1   
    10     4     8 ar  
    11     5     6 1   
    12     6     7 1   
    13     6    28 1   
    14     6    29 1   
    15     7    30 1   
    16     7    31 1   
    17     7    32 1   
    18     8     9 ar  
    19     8    33 1   
    20     9    10 ar  
    21     9    34 1   
    22    10    11 ar  
    23    10    12 1   
    24    11    35 1   
    25    12    13 ar  
    26    12    17 ar  
    27    13    14 ar  
    28    13    36 1   
    29    14    15 ar  
    30    14    18 ar  
    31    15    16 ar  
    32    15    22 ar  
    33    16    17 ar  
    34    16    37 1   
    35    17    38 1   
    36    18    19 ar  
    37    19    20 1   
    38    19    21 ar  
    39    20    39 1   
    40    20    40 1   
    41    21    22 ar  
    42    21    41 1   
    43    22    23 1   
    44    23    42 1   
    45    23    43 1   
    46    23    44 1   
@<TRIPOS>SUBSTRUCTURE
     1 OSJ         1 TEMP              0 ****  ****    0 ROOT
