@<TRIPOS>MOLECULE
OSJ
   44    46     1     0     0
SMALL
No Charge or Current Charge


@<TRIPOS>ATOM
      1 N28        123.2920   255.5820   360.9750 n8         1 OSJ      -0.982200
      2 C27        122.4290   255.7950   359.7980 c3         1 OSJ       0.207100
      3 C25        121.8660   254.4790   359.2690 ca         1 OSJ      -0.124300
      4 C24        122.3920   253.8640   358.1100 ca         1 OSJ       0.177100
      5 O29        123.4520   254.4710   357.4560 os         1 OSJ      -0.331100
      6 C30        123.9260   254.0710   356.1550 c3         1 OSJ       0.160600
      7 C31        122.9060   254.5270   355.0910 c3         1 OSJ      -0.129100
      8 C23        121.8370   252.6440   357.6630 ca         1 OSJ      -0.208000
      9 C22        120.7630   252.0560   358.3500 ca         1 OSJ      -0.053000
     10 C21        120.2120   252.6620   359.5030 cp         1 OSJ      -0.081000
     11 C26        120.7830   253.8800   359.9460 ca         1 OSJ      -0.062000
     12 C08        119.0630   252.0370   360.2330 cp         1 OSJ      -0.001000
     13 C09        118.9460   250.6310   360.3490 ca         1 OSJ      -0.099000
     14 C10        117.8770   250.0200   361.0290 ca         1 OSJ       0.325000
     15 C05        116.8780   250.8420   361.6210 ca         1 OSJ      -0.122000
     16 C06        116.9800   252.2470   361.5140 ca         1 OSJ      -0.077000
     17 C07        118.0570   252.8300   360.8300 ca         1 OSJ      -0.124000
     18 N01        117.8330   248.6690   361.1020 nb         1 OSJ      -0.759000
     19 C02        116.8150   248.1230   361.7450 ca         1 OSJ       0.614900
     20 N02        116.9080   246.7920   361.7420 nv         1 OSJ      -1.068900
     21 C03        115.7840   248.8270   362.3630 ca         1 OSJ      -0.211000
     22 C04        115.8010   250.2290   362.3070 ca         1 OSJ       0.006700
     23 C11        114.6830   251.0250   362.9730 c3         1 OSJ      -0.056800
     24 H1         123.5670   256.4960   361.3530 hn         1 OSJ       0.389000
     25 H2         122.7290   255.1640   361.7230 hn         1 OSJ       0.389000
     26 H4         123.0070   256.3170   359.0230 h1         1 OSJ       0.033700
     27 H5         121.5980   256.4520   360.0900 h1         1 OSJ       0.033700
     28 H6         124.0980   252.9890   356.0980 h1         1 OSJ       0.053200
     29 H7         124.8840   254.5640   355.9470 h1         1 OSJ       0.053200
     30 H8         123.2790   254.2900   354.0870 hc         1 OSJ       0.045367
     31 H9         121.9400   254.0260   355.2200 hc         1 OSJ       0.045367
     32 H10        122.7470   255.6100   355.1500 hc         1 OSJ       0.045367
     33 H11        122.2220   252.1370   356.7850 ha         1 OSJ       0.118000
     34 H12        120.3450   251.1250   357.9730 ha         1 OSJ       0.116000
     35 H13        120.3890   254.3620   360.8370 ha         1 OSJ       0.110000
     36 H14        119.7100   249.9940   359.9140 ha         1 OSJ       0.130000
     37 H15        116.2310   252.9010   361.9520 ha         1 OSJ       0.110000
     38 H16        118.1020   253.9140   360.7520 ha         1 OSJ       0.113000
     39 H17        117.8180   246.4400   361.4710 hn         1 OSJ       0.474500
     40 H18        116.4300   246.2870   362.4790 hn         1 OSJ       0.474500
     41 H19        114.9870   248.2940   362.8730 ha         1 OSJ       0.119000
     42 H20        114.1460   251.6390   362.2410 hc         1 OSJ       0.048033
     43 H21        113.9460   250.3680   363.4510 hc         1 OSJ       0.048033
     44 H22        115.0810   251.6890   363.7500 hc         1 OSJ       0.048033
@<TRIPOS>BOND
     1     1     2 1   
     2     1    24 1   
     3     1    25 1   
     4     2     3 1   
     5     2    26 1   
     6     2    27 1   
     7     3     4 ar  
     8     3    11 ar  
     9     4     5 1   
    10     4     8 ar  
    11     5     6 1   
    12     6     7 1   
    13     6    28 1   
    14     6    29 1   
    15     7    30 1   
    16     7    31 1   
    17     7    32 1   
    18     8     9 ar  
    19     8    33 1   
    20     9    10 ar  
    21     9    34 1   
    22    10    11 ar  
    23    10    12 1   
    24    11    35 1   
    25    12    13 ar  
    26    12    17 ar  
    27    13    14 ar  
    28    13    36 1   
    29    14    15 ar  
    30    14    18 ar  
    31    15    16 ar  
    32    15    22 ar  
    33    16    17 ar  
    34    16    37 1   
    35    17    38 1   
    36    18    19 ar  
    37    19    20 1   
    38    19    21 ar  
    39    20    39 1   
    40    20    40 1   
    41    21    22 ar  
    42    21    41 1   
    43    22    23 1   
    44    23    42 1   
    45    23    43 1   
    46    23    44 1   
@<TRIPOS>SUBSTRUCTURE
     1 OSJ         1 TEMP              0 ****  ****    0 ROOT
