@<TRIPOS>MOLECULE
OSL
   15    14     1     0     0
SMALL
No Charge or Current Charge


@<TRIPOS>ATOM
      1 C24          2.8710    -0.2770     0.1110 c          1 OSL       0.687000
      2 C25          1.6170     0.4530    -0.4790 c3         1 OSL       0.023300
      3 C26          0.3410    -0.1520     0.1690 c3         1 OSL       0.205600
      4 O66          3.4840     0.2820     1.0130 o          1 OSL      -0.740500
      5 O67          1.6870     1.8990    -0.2810 oh         1 OSL      -0.691000
      6 O68         -0.8250     0.3710    -0.4960 os         1 OSL      -0.594700
      7 S69         -2.2740    -0.1730     0.0510 s6         1 OSL       1.510300
      8 O70         -3.2540     0.5310    -0.7890 o          1 OSL      -0.736533
      9 O71         -2.2200    -1.6260    -0.1690 o          1 OSL      -0.736533
     10 O72         -2.2980     0.2190     1.4680 o          1 OSL      -0.736533
     11 O7           3.2610    -1.3040    -0.4270 o          1 OSL      -0.740500
     12 H25          1.5910     0.2290    -1.5540 h1         1 OSL       0.031700
     13 H26          0.3850    -1.2460     0.0700 h1         1 OSL       0.034200
     14 H26A         0.3330     0.0900     1.2400 h1         1 OSL       0.034200
     15 HO67         2.3460     2.0250     0.4430 ho         1 OSL       0.451000
@<TRIPOS>BOND
     1     1     2 1   
     2     1     4 1   
     3     1    11 1   
     4     2     3 1   
     5     2     5 1   
     6     2    12 1   
     7     3     6 1   
     8     3    13 1   
     9     3    14 1   
    10     5    15 1   
    11     6     7 1   
    12     7     8 1   
    13     7     9 1   
    14     7    10 1   
@<TRIPOS>SUBSTRUCTURE
     1 OSL         1 TEMP              0 ****  ****    0 ROOT
