@<TRIPOS>MOLECULE
OSL
   15    14     1     0     0
SMALL
abcg2


@<TRIPOS>ATOM
      1 C24          2.8630    -0.2060     0.1250 c          1 OSL       0.687000
      2 C25          1.5820     0.4640    -0.4300 c3         1 OSL       0.023300
      3 C26          0.3570    -0.1610     0.2090 c3         1 OSL       0.205600
      4 O66          3.6760     0.5860     0.6490 o          1 OSL      -0.740500
      5 O67          1.6340     1.8470    -0.2000 oh         1 OSL      -0.691000
      6 O68         -0.7980     0.4340    -0.3780 os         1 OSL      -0.594700
      7 S69         -2.2560    -0.1990     0.0190 s6         1 OSL       1.510300
      8 O70         -3.1470     0.6670    -0.7500 o          1 OSL      -0.736533
      9 O71         -2.2240    -1.5920    -0.4360 o          1 OSL      -0.736533
     10 O72         -2.3730    -0.0590     1.4730 o          1 OSL      -0.736533
     11 O7           2.9700    -1.4350     0.0030 o          1 OSL      -0.740500
     12 H25          1.5410     0.2610    -1.5110 h1         1 OSL       0.031700
     13 H26          0.3690    -1.2390     0.0340 h1         1 OSL       0.034200
     14 H26A         0.3670     0.0120     1.2910 h1         1 OSL       0.034200
     15 HO67         2.4830     1.9410     0.2710 ho         1 OSL       0.451000
@<TRIPOS>BOND
     1     1     2 1   
     2     1     4 1   
     3     1    11 1   
     4     2     3 1   
     5     2     5 1   
     6     2    12 1   
     7     3     6 1   
     8     3    13 1   
     9     3    14 1   
    10     5    15 1   
    11     6     7 1   
    12     7     8 1   
    13     7     9 1   
    14     7    10 1   
@<TRIPOS>SUBSTRUCTURE
     1 OSL         1 TEMP              0 ****  ****    0 ROOT
