@<TRIPOS>MOLECULE
OSM
    9     8     1     0     0
SMALL
No Charge or Current Charge


@<TRIPOS>ATOM
      1 O           -1.8280    -0.4860     0.0240 o          1 OSM      -0.504000
      2 S           -0.6280     0.4410     0.0610 s4         1 OSM       0.095700
      3 C            0.9020    -0.6090    -0.0240 c3         1 OSM       0.245100
      4 N            2.1570     0.1830    -0.0940 n8         1 OSM      -1.021200
      5 HS          -0.3360     0.9570    -1.2050 hs         1 OSM       0.214000
      6 H1           0.7960    -1.2410    -0.9150 h2         1 OSM       0.068200
      7 H2           0.8930    -1.2460     0.8690 h2         1 OSM       0.068200
      8 HN1          2.2660     0.7090     0.7830 hn         1 OSM       0.417500
      9 HN2          2.9570    -0.4630    -0.0810 hn         1 OSM       0.417500
@<TRIPOS>BOND
     1     1     2 2   
     2     2     3 1   
     3     2     5 1   
     4     3     4 1   
     5     3     6 1   
     6     3     7 1   
     7     4     8 1   
     8     4     9 1   
@<TRIPOS>SUBSTRUCTURE
     1 OSM         1 TEMP              0 ****  ****    0 ROOT
