@<TRIPOS>MOLECULE
OSM
    9     8     1     0     0
SMALL
bcc


@<TRIPOS>ATOM
      1 O           -1.8200    -0.4500    -0.1700 o          1 OSM      -0.477200
      2 S           -0.5930     0.4240    -0.0260 s4         1 OSM       0.068900
      3 C            0.9060    -0.6330     0.1290 c3         1 OSM       0.245100
      4 N            2.0250     0.2540     0.0430 n8         1 OSM      -0.910800
      5 HS          -0.2090     0.8450    -1.2670 hs         1 OSM       0.214000
      6 H1           0.8760    -1.3620    -0.6800 h2         1 OSM       0.068200
      7 H2           0.8080    -1.1600     1.0790 h2         1 OSM       0.068200
      8 HN1          2.4760     0.3900     0.9340 hn         1 OSM       0.362300
      9 HN2          2.7100    -0.0630    -0.6240 hn         1 OSM       0.362300
@<TRIPOS>BOND
     1     1     2 2   
     2     2     3 1   
     3     2     5 1   
     4     3     4 1   
     5     3     6 1   
     6     3     7 1   
     7     4     8 1   
     8     4     9 1   
@<TRIPOS>SUBSTRUCTURE
     1 OSM         1 TEMP              0 ****  ****    0 ROOT
