@<TRIPOS>MOLECULE
OSN
   61    64     1     0     0
SMALL
No Charge or Current Charge


@<TRIPOS>ATOM
      1 C4          28.4080    24.8280   104.3780 ca         1 OSN       0.175100
      2 C14         25.5480    29.5150   105.2340 c2         1 OSN      -0.201200
      3 C5          28.3110    25.9870   105.1560 ca         1 OSN      -0.230000
      4 C6          29.4060    26.4580   105.9100 ca         1 OSN       0.370000
      5 C7          30.5000    28.1720   107.4210 c6         1 OSN       0.224800
      6 C8          31.4190    27.0280   107.8850 c6         1 OSN      -0.086400
      7 C9          31.8340    26.1590   106.6880 c6         1 OSN      -0.015100
      8 C10         27.2910    23.2740   102.8210 c3         1 OSN       0.150900
      9 C12         28.1040    29.4270   105.3470 c3         1 OSN      -0.106400
     10 C13         26.8410    30.3090   105.2260 c3         1 OSN      -0.040200
     11 N1          29.3110    27.6550   106.6900 nh         1 OSN      -0.818400
     12 N2          24.2040    27.1760   102.0780 nu         1 OSN      -0.932200
     13 C3          29.6160    24.1090   104.3430 ca         1 OSN      -0.243000
     14 N3          21.8170    25.5320   102.2440 ns         1 OSN      -0.147000
     15 C1          30.6140    25.7150   105.8790 ca         1 OSN      -0.182300
     16 C2          30.7130    24.5520   105.0930 ca         1 OSN      -0.035000
     17 O1          27.2930    24.4390   103.6640 os         1 OSN      -0.350100
     18 C15         25.2650    28.4640   104.4320 ce         1 OSN      -0.174200
     19 C16         23.9970    27.6660   104.4610 ca         1 OSN      -0.084800
     20 C17         23.5280    26.9930   103.3020 ca         1 OSN       0.253000
     21 C18         22.3350    26.2190   103.3740 ca         1 OSN      -0.047000
     22 C19         21.6190    26.1400   104.5800 ca         1 OSN      -0.126000
     23 C20         22.0910    26.7980   105.7240 ca         1 OSN      -0.110000
     24 C21         23.2750    27.5480   105.6670 ca         1 OSN      -0.089000
     25 C22         24.7930    26.1240   101.2400 c3         1 OSN       0.219500
     26 C23         23.9910    24.8210   101.3560 c3         1 OSN      -0.167400
     27 C24         22.5030    25.0850   101.1330 c          1 OSN       0.584000
     28 C25         24.9220    26.6350    99.7920 c3         1 OSN      -0.096100
     29 O2          21.9450    24.8650   100.0640 o          1 OSN      -0.558000
     30 H1          24.8200    29.8710   105.9660 ha         1 OSN       0.175000
     31 H2          27.3650    26.5130   105.1580 ha         1 OSN       0.124000
     32 H3          28.1430    29.2360   107.4950 h1         1 OSN       0.051200
     33 H4          27.2120    27.9800   106.7140 h1         1 OSN       0.051200
     34 H5          31.0680    28.8530   106.7700 h1         1 OSN       0.035700
     35 H6          30.1870    28.7480   108.3050 h1         1 OSN       0.035700
     36 H7          32.3070    27.4380   108.3840 hc         1 OSN       0.051700
     37 H8          30.8930    26.4130   108.6270 hc         1 OSN       0.051700
     38 H9          32.3960    25.2860   107.0460 hc         1 OSN       0.044700
     39 H10         32.5140    26.7250   106.0370 hc         1 OSN       0.044700
     40 H11         26.3080    23.1470   102.3500 h1         1 OSN       0.038700
     41 H12         28.0400    23.3690   102.0240 h1         1 OSN       0.038700
     42 H13         27.5070    22.3700   103.4040 h1         1 OSN       0.038700
     43 H14         28.1790    28.7810   104.4650 hc         1 OSN       0.050700
     44 H15         28.9900    30.0720   105.3320 hc         1 OSN       0.050700
     45 H16         26.9070    30.8950   104.3010 hc         1 OSN       0.046200
     46 H17         26.8360    31.0350   106.0490 hc         1 OSN       0.046200
     47 H19         29.7230    23.2070   103.7480 ha         1 OSN       0.118000
     48 H20         20.8090    25.5520   102.1540 hn         1 OSN       0.158000
     49 H21         31.6440    23.9890   105.0660 ha         1 OSN       0.104000
     50 H22         26.0030    28.1350   103.6990 ha         1 OSN       0.168000
     51 H23         20.7010    25.5580   104.6350 ha         1 OSN       0.117000
     52 H24         21.5420    26.7210   106.6600 ha         1 OSN       0.118000
     53 H25         23.6310    28.0320   106.5730 ha         1 OSN       0.128000
     54 H26         25.8060    25.9120   101.6090 h1         1 OSN       0.024700
     55 H27         24.3610    24.0870   100.6310 hc         1 OSN       0.072200
     56 H28         24.1470    24.4550   102.3770 hc         1 OSN       0.072200
     57 H29         25.5590    27.5260    99.7520 hc         1 OSN       0.046033
     58 H30         25.3770    25.8680    99.1530 hc         1 OSN       0.046033
     59 H31         23.9420    26.8950    99.3730 hc         1 OSN       0.046033
     60 C11         28.1390    28.5610   106.6270 c3         1 OSN       0.219800
     61 H18         24.7200    28.0550   102.0530 hn         1 OSN       0.448000
@<TRIPOS>BOND
     1     1     3 ar  
     2     1    13 ar  
     3     1    17 1   
     4     2    10 1   
     5     2    18 2   
     6     2    30 1   
     7     3     4 ar  
     8     3    31 1   
     9     4    11 1   
    10     4    15 ar  
    11     5     6 1   
    12     5    11 1   
    13     5    34 1   
    14     5    35 1   
    15     6     7 1   
    16     6    36 1   
    17     6    37 1   
    18     7    15 1   
    19     7    38 1   
    20     7    39 1   
    21     8    17 1   
    22     8    40 1   
    23     8    41 1   
    24     8    42 1   
    25     9    10 1   
    26     9    43 1   
    27     9    44 1   
    28     9    60 1   
    29    10    45 1   
    30    10    46 1   
    31    11    60 1   
    32    12    20 1   
    33    12    25 1   
    34    12    61 1   
    35    13    16 ar  
    36    13    47 1   
    37    14    21 1   
    38    14    27 1   
    39    14    48 1   
    40    15    16 ar  
    41    16    49 1   
    42    18    19 1   
    43    18    50 1   
    44    19    20 ar  
    45    19    24 ar  
    46    20    21 ar  
    47    21    22 ar  
    48    22    23 ar  
    49    22    51 1   
    50    23    24 ar  
    51    23    52 1   
    52    24    53 1   
    53    25    26 1   
    54    25    28 1   
    55    25    54 1   
    56    26    27 1   
    57    26    55 1   
    58    26    56 1   
    59    27    29 2   
    60    28    57 1   
    61    28    58 1   
    62    28    59 1   
    63    32    60 1   
    64    33    60 1   
@<TRIPOS>SUBSTRUCTURE
     1 OSN         1 TEMP              0 ****  ****    0 ROOT
