@<TRIPOS>MOLECULE
OSN
   61    64     1     0     0
SMALL
bcc


@<TRIPOS>ATOM
      1 C4          28.5460    24.4170   106.2400 ca         1 OSN       0.175100
      2 C14         26.0940    28.3990   104.4960 c2         1 OSN      -0.151200
      3 C5          28.5500    25.8050   106.3540 ca         1 OSN      -0.248000
      4 C6          29.6890    26.5060   106.7680 ca         1 OSN       0.231600
      5 C7          30.9050    28.5950   107.1440 c6         1 OSN       0.224800
      6 C8          31.8390    27.8240   108.0560 c6         1 OSN      -0.086400
      7 C9          32.1370    26.4640   107.4500 c6         1 OSN      -0.015100
      8 C10         27.3010    22.4770   105.6710 c3         1 OSN       0.127700
      9 C12         28.5200    28.8840   104.9610 c3         1 OSN      -0.106400
     10 C13         27.1810    29.4260   104.4500 c3         1 OSN      -0.040200
     11 N1          29.6640    27.8720   106.9390 nh         1 OSN      -0.680000
     12 N2          23.2530    27.8900   101.6560 nu         1 OSN      -0.738600
     13 C3          29.6920    23.6870   106.5250 ca         1 OSN      -0.261000
     14 N3          21.4720    25.7540   101.6020 ns         1 OSN      -0.473100
     15 C1          30.8670    25.7680   107.0400 ca         1 OSN      -0.182300
     16 C2          30.8260    24.3910   106.9200 ca         1 OSN      -0.053000
     17 O1          27.3730    23.8750   105.8430 os         1 OSN      -0.326900
     18 C15         25.5290    27.8590   103.4150 ce         1 OSN      -0.124200
     19 C16         24.5250    26.7850   103.4330 ca         1 OSN      -0.084800
     20 C17         23.4710    26.8010   102.5050 ca         1 OSN       0.114600
     21 C18         22.5520    25.7400   102.4960 ca         1 OSN       0.045600
     22 C19         22.6600    24.7060   103.4160 ca         1 OSN      -0.144000
     23 C20         23.6790    24.7160   104.3580 ca         1 OSN      -0.128000
     24 C21         24.6060    25.7430   104.3580 ca         1 OSN      -0.107000
     25 C22         23.4340    27.7430   100.2130 c3         1 OSN       0.219500
     26 C23         22.9050    26.3860    99.7540 c3         1 OSN      -0.167400
     27 C24         21.5260    26.0880   100.2890 c          1 OSN       0.726500
     28 C25         22.7380    28.8980    99.5110 c3         1 OSN      -0.096100
     29 O2          20.5210    26.1130    99.5970 o          1 OSN      -0.633500
     30 H1          25.7640    28.0710   105.4780 ha         1 OSN       0.125000
     31 H2          27.6340    26.3230   106.1050 ha         1 OSN       0.142000
     32 H3          28.5730    29.6160   106.9840 h1         1 OSN       0.051200
     33 H4          27.6130    28.1830   106.8170 h1         1 OSN       0.051200
     34 H5          31.4090    28.8100   106.1920 h1         1 OSN       0.035700
     35 H6          30.6580    29.5590   107.5940 h1         1 OSN       0.035700
     36 H7          32.7580    28.3940   108.1990 hc         1 OSN       0.051700
     37 H8          31.3730    27.7090   109.0380 hc         1 OSN       0.051700
     38 H9          32.6910    25.8410   108.1560 hc         1 OSN       0.044700
     39 H10         32.7930    26.5920   106.5820 hc         1 OSN       0.044700
     40 H11         26.2850    22.2560   105.3530 h1         1 OSN       0.038700
     41 H12         27.9930    22.1210   104.9030 h1         1 OSN       0.038700
     42 H13         27.5020    21.9370   106.6000 h1         1 OSN       0.038700
     43 H14         28.7540    27.9550   104.4340 hc         1 OSN       0.050700
     44 H15         29.3130    29.5910   104.7050 hc         1 OSN       0.050700
     45 H16         27.3040    29.7810   103.4250 hc         1 OSN       0.046200
     46 H17         26.8920    30.2970   105.0490 hc         1 OSN       0.046200
     47 H19         29.7280    22.6090   106.4530 ha         1 OSN       0.136000
     48 H20         20.5760    25.4410   101.9500 hn         1 OSN       0.324500
     49 H21         31.7270    23.8310   107.1460 ha         1 OSN       0.122000
     50 H22         25.8370    28.2220   102.4370 ha         1 OSN       0.118000
     51 H23         21.9400    23.8980   103.3960 ha         1 OSN       0.135000
     52 H24         23.7610    23.9090   105.0730 ha         1 OSN       0.136000
     53 H25         25.4290    25.7190   105.0590 ha         1 OSN       0.146000
     54 H26         24.5010    27.7720    99.9480 h1         1 OSN       0.024700
     55 H27         22.8680    26.3690    98.6660 hc         1 OSN       0.072200
     56 H28         23.5950    25.5960   100.0630 hc         1 OSN       0.072200
     57 H29         23.1290    29.8540    99.8600 hc         1 OSN       0.046033
     58 H30         22.9000    28.8460    98.4350 hc         1 OSN       0.046033
     59 H31         21.6630    28.8870    99.6970 hc         1 OSN       0.046033
     60 C11         28.5390    28.6510   106.4750 c3         1 OSN       0.219800
     61 H18         23.7130    28.7260   101.9870 hn         1 OSN       0.392800
@<TRIPOS>BOND
     1     1     3 ar  
     2     1    13 ar  
     3     1    17 1   
     4     2    10 1   
     5     2    18 2   
     6     2    30 1   
     7     3     4 ar  
     8     3    31 1   
     9     4    11 1   
    10     4    15 ar  
    11     5     6 1   
    12     5    11 1   
    13     5    34 1   
    14     5    35 1   
    15     6     7 1   
    16     6    36 1   
    17     6    37 1   
    18     7    15 1   
    19     7    38 1   
    20     7    39 1   
    21     8    17 1   
    22     8    40 1   
    23     8    41 1   
    24     8    42 1   
    25     9    10 1   
    26     9    43 1   
    27     9    44 1   
    28     9    60 1   
    29    10    45 1   
    30    10    46 1   
    31    11    60 1   
    32    12    20 1   
    33    12    25 1   
    34    12    61 1   
    35    13    16 ar  
    36    13    47 1   
    37    14    21 1   
    38    14    27 1   
    39    14    48 1   
    40    15    16 ar  
    41    16    49 1   
    42    18    19 1   
    43    18    50 1   
    44    19    20 ar  
    45    19    24 ar  
    46    20    21 ar  
    47    21    22 ar  
    48    22    23 ar  
    49    22    51 1   
    50    23    24 ar  
    51    23    52 1   
    52    24    53 1   
    53    25    26 1   
    54    25    28 1   
    55    25    54 1   
    56    26    27 1   
    57    26    55 1   
    58    26    56 1   
    59    27    29 2   
    60    28    57 1   
    61    28    58 1   
    62    28    59 1   
    63    32    60 1   
    64    33    60 1   
@<TRIPOS>SUBSTRUCTURE
     1 OSN         1 TEMP              0 ****  ****    0 ROOT
