@<TRIPOS>MOLECULE
OSP
   32    33     1     0     0
SMALL
No Charge or Current Charge


@<TRIPOS>ATOM
      1 O3          -5.8770     5.3460    11.3470 o          1 OSP      -0.535000
      2 S2          -4.4230     5.2910    11.5290 s6         1 OSP       1.212100
      3 O4          -3.6540     4.1450    11.0310 o          1 OSP      -0.535000
      4 C7          -3.6960     6.8250    10.9050 c6         1 OSP      -0.327400
      5 C8          -2.2130     7.0160    11.3170 c6         1 OSP      -0.045400
      6 C9          -1.9270     6.5620    12.7750 c6         1 OSP      -0.125400
      7 C10         -3.1970     6.4980    13.6580 c6         1 OSP       0.213800
      8 N2          -4.1110     5.4070    13.2300 nh         1 OSP      -0.778300
      9 C4          -4.4440     4.3420    14.0850 ca         1 OSP       0.306000
     10 C3          -3.4430     3.6850    14.8220 ca         1 OSP      -0.132000
     11 C2          -3.7640     2.6220    15.6830 ca         1 OSP      -0.001500
     12 C5          -5.7790     3.9250    14.2270 ca         1 OSP      -0.132000
     13 C6          -6.1140     2.8640    15.0860 ca         1 OSP      -0.001500
     14 C1          -5.1040     2.2070    15.8180 ca         1 OSP      -0.330500
     15 S1          -5.5160     0.8530    16.9200 sy         1 OSP       1.164600
     16 O1          -6.9510     0.8480    17.1910 o          1 OSP      -0.536000
     17 O2          -4.5030     0.7150    17.9670 o          1 OSP      -0.536000
     18 N1          -5.2960    -0.4340    15.9380 n8         1 OSP      -0.994100
     19 H71         -3.8160     6.8050     9.8160 h1         1 OSP       0.106700
     20 H72         -4.3250     7.6220    11.3190 h1         1 OSP       0.106700
     21 H81         -1.5600     6.4530    10.6340 hc         1 OSP       0.063200
     22 H82         -1.9390     8.0740    11.1930 hc         1 OSP       0.063200
     23 H91         -1.4450     5.5750    12.7700 hc         1 OSP       0.069200
     24 H92         -1.2000     7.2470    13.2320 hc         1 OSP       0.069200
     25 H101        -2.8900     6.3450    14.7030 h1         1 OSP       0.066200
     26 H102        -3.7190     7.4660    13.6350 h1         1 OSP       0.066200
     27 H3          -2.4060     3.9890    14.7180 ha         1 OSP       0.136500
     28 H2          -2.9690     2.1250    16.2380 ha         1 OSP       0.139000
     29 H5          -6.5680     4.4340    13.6830 ha         1 OSP       0.136500
     30 H6          -7.1570     2.5650    15.1810 ha         1 OSP       0.139000
     31 HN11        -6.1960    -0.8980    16.0320 hn         1 OSP       0.476500
     32 HN12        -5.3390    -0.0030    15.0180 hn         1 OSP       0.476500
@<TRIPOS>BOND
     1     1     2 2   
     2     2     3 2   
     3     2     4 1   
     4     2     8 1   
     5     4     5 1   
     6     4    19 1   
     7     4    20 1   
     8     5     6 1   
     9     5    21 1   
    10     5    22 1   
    11     6     7 1   
    12     6    23 1   
    13     6    24 1   
    14     7     8 1   
    15     7    25 1   
    16     7    26 1   
    17     8     9 1   
    18     9    10 ar  
    19     9    12 ar  
    20    10    11 ar  
    21    10    27 1   
    22    11    14 ar  
    23    11    28 1   
    24    12    13 ar  
    25    12    29 1   
    26    13    14 ar  
    27    13    30 1   
    28    14    15 1   
    29    15    16 2   
    30    15    17 2   
    31    15    18 1   
    32    18    31 1   
    33    18    32 1   
@<TRIPOS>SUBSTRUCTURE
     1 OSP         1 TEMP              0 ****  ****    0 ROOT
