@<TRIPOS>MOLECULE
OSP
   32    33     1     0     0
SMALL
abcg2


@<TRIPOS>ATOM
      1 O3          -5.7830     5.0890    11.3000 o          1 OSP      -0.535000
      2 S2          -4.3780     5.2240    11.6270 s6         1 OSP       1.212100
      3 O4          -3.5290     4.1130    11.2380 o          1 OSP      -0.535000
      4 C7          -3.7180     6.7320    10.9660 c6         1 OSP      -0.327400
      5 C8          -2.2480     6.9360    11.3540 c6         1 OSP      -0.045400
      6 C9          -1.9570     6.5400    12.8160 c6         1 OSP      -0.125400
      7 C10         -3.2180     6.5500    13.6710 c6         1 OSP       0.213800
      8 N2          -4.2250     5.5320    13.2620 nh         1 OSP      -0.778300
      9 C4          -4.4900     4.4210    14.1160 ca         1 OSP       0.306000
     10 C3          -3.4620     3.7850    14.8130 ca         1 OSP      -0.132000
     11 C2          -3.7430     2.7120    15.6470 ca         1 OSP      -0.001500
     12 C5          -5.8040     3.9660    14.2510 ca         1 OSP      -0.132000
     13 C6          -6.0880     2.8890    15.0740 ca         1 OSP      -0.001500
     14 C1          -5.0550     2.2680    15.7720 ca         1 OSP      -0.330500
     15 S1          -5.4250     0.8910    16.8260 sy         1 OSP       1.164600
     16 O1          -6.6730     1.1700    17.4950 o          1 OSP      -0.536000
     17 O2          -4.2470     0.5930    17.6050 o          1 OSP      -0.536000
     18 N1          -5.6980    -0.4210    15.8790 n8         1 OSP      -0.994100
     19 H71         -3.8610     6.6420     9.8890 h1         1 OSP       0.106700
     20 H72         -4.3660     7.5270    11.3350 h1         1 OSP       0.106700
     21 H81         -1.6110     6.3680    10.6790 hc         1 OSP       0.063200
     22 H82         -2.0280     7.9920    11.1960 hc         1 OSP       0.063200
     23 H91         -1.5120     5.5440    12.8530 hc         1 OSP       0.069200
     24 H92         -1.2360     7.2310    13.2530 hc         1 OSP       0.069200
     25 H101        -2.9840     6.3470    14.7120 h1         1 OSP       0.066200
     26 H102        -3.6990     7.5300    13.6320 h1         1 OSP       0.066200
     27 H3          -2.4410     4.1210    14.7050 ha         1 OSP       0.136500
     28 H2          -2.9490     2.2210    16.1900 ha         1 OSP       0.139000
     29 H5          -6.5990     4.4710    13.7200 ha         1 OSP       0.136500
     30 H6          -7.1080     2.5480    15.1870 ha         1 OSP       0.139000
     31 HN11        -6.5240    -0.3240    15.2970 hn         1 OSP       0.476500
     32 HN12        -4.8830    -0.6930    15.3380 hn         1 OSP       0.476500
@<TRIPOS>BOND
     1     1     2 2   
     2     2     3 2   
     3     2     4 1   
     4     2     8 1   
     5     4     5 1   
     6     4    19 1   
     7     4    20 1   
     8     5     6 1   
     9     5    21 1   
    10     5    22 1   
    11     6     7 1   
    12     6    23 1   
    13     6    24 1   
    14     7     8 1   
    15     7    25 1   
    16     7    26 1   
    17     8     9 1   
    18     9    10 ar  
    19     9    12 ar  
    20    10    11 ar  
    21    10    27 1   
    22    11    14 ar  
    23    11    28 1   
    24    12    13 ar  
    25    12    29 1   
    26    13    14 ar  
    27    13    30 1   
    28    14    15 1   
    29    15    16 2   
    30    15    17 2   
    31    15    18 1   
    32    18    31 1   
    33    18    32 1   
@<TRIPOS>SUBSTRUCTURE
     1 OSP         1 TEMP              0 ****  ****    0 ROOT
