@<TRIPOS>MOLECULE
OSQ
   54    57     1     0     0
SMALL
No Charge or Current Charge


@<TRIPOS>ATOM
      1 C4          26.9970    37.4380    27.4950 ca         1 OSQ      -0.087000
      2 C14         24.4610    45.6070    21.6520 c6         1 OSQ      -0.089400
      3 C5          26.5340    38.3150    28.4870 ca         1 OSQ      -0.098000
      4 C6          26.6670    39.6960    28.3030 ca         1 OSQ      -0.133000
      5 C11         28.0100    42.4720    22.7160 c3         1 OSQ       0.131000
      6 C7          27.2600    40.2050    27.1370 ca         1 OSQ      -0.075000
      7 C8          27.7450    39.3370    26.1220 ca         1 OSQ      -0.207600
      8 C9          28.3810    39.9000    24.8630 c          1 OSQ       0.625700
      9 C10         29.1230    42.0290    23.7040 c3         1 OSQ       0.053000
     10 C12         26.9030    43.3350    23.3980 c3         1 OSQ       0.191800
     11 C13         25.8000    44.8490    21.6820 c6         1 OSQ       0.232800
     12 N1          26.8480    36.0390    27.6710 ns         1 OSQ      -0.139000
     13 N2          28.6260    41.2580    24.8600 ns         1 OSQ      -0.507900
     14 C3          27.1520    35.0520    26.7510 c          1 OSQ       0.567000
     15 N3          25.7070    43.6550    22.5630 nh         1 OSQ      -0.829400
     16 C1          26.5910    35.3530    24.2780 c3         1 OSQ      -0.089100
     17 C2          27.6760    35.5750    25.3630 c6         1 OSQ       0.144500
     18 C15         23.3290    44.6770    21.1790 c6         1 OSQ      -0.023100
     19 C16         23.3380    43.3400    21.9250 ca         1 OSQ      -0.143300
     20 C17         22.1610    42.5670    21.9370 ca         1 OSQ      -0.071000
     21 C18         22.1290    41.3330    22.6010 ca         1 OSQ      -0.155000
     22 C19         23.2750    40.8610    23.2540 ca         1 OSQ      -0.070000
     23 C20         24.4540    41.6240    23.2420 ca         1 OSQ      -0.179000
     24 C21         24.5090    42.8740    22.5820 ca         1 OSQ       0.345000
     25 F1          28.5860    43.1890    21.7210 f          1 OSQ      -0.108500
     26 F2          27.4610    41.3790    22.1320 f          1 OSQ      -0.108500
     27 O1          28.6600    39.2170    23.8850 o          1 OSQ      -0.599100
     28 C22         27.6030    37.9400    26.3180 ca         1 OSQ       0.331000
     29 N4          28.0710    37.0160    25.3780 nu         1 OSQ      -0.934200
     30 O2          27.0300    33.8590    27.0120 o          1 OSQ      -0.536000
     31 H2          24.2340    45.9870    22.6580 hc         1 OSQ       0.050700
     32 H3          26.0690    37.9290    29.3920 ha         1 OSQ       0.120000
     33 H4          26.3020    40.3800    29.0680 ha         1 OSQ       0.122000
     34 H5          27.3230    41.2850    27.0390 ha         1 OSQ       0.112000
     35 H6          29.8660    41.4270    23.1630 h1         1 OSQ       0.077200
     36 H7          29.6390    42.9220    24.0810 h1         1 OSQ       0.077200
     37 H8          26.5850    42.8480    24.3290 h1         1 OSQ       0.062700
     38 H9          27.3720    44.2730    23.7290 h1         1 OSQ       0.062700
     39 H10         26.0700    44.5410    20.6610 h1         1 OSQ       0.043200
     40 H11         26.5850    45.5360    22.0340 h1         1 OSQ       0.043200
     41 H12         26.4950    35.7280    28.5670 hn         1 OSQ       0.161000
     42 H13         28.4240    41.7540    25.7190 hn         1 OSQ       0.319500
     43 H14         26.3100    34.2950    24.2120 hc         1 OSQ       0.055033
     44 H15         25.6840    35.9280    24.4970 hc         1 OSQ       0.055033
     45 H16         26.9520    35.6590    23.2890 hc         1 OSQ       0.055033
     46 H17         28.5470    34.9560    25.1030 h1         1 OSQ       0.050700
     47 H18         22.3620    45.1820    21.3100 hc         1 OSQ       0.048700
     48 H19         23.4370    44.4870    20.1020 hc         1 OSQ       0.048700
     49 H20         21.2680    42.9250    21.4280 ha         1 OSQ       0.105000
     50 H21         21.2160    40.7420    22.6080 ha         1 OSQ       0.114000
     51 H22         23.2540    39.9010    23.7650 ha         1 OSQ       0.109000
     52 H23         25.3240    41.2190    23.7450 ha         1 OSQ       0.106000
     53 H24         28.4240    37.4510    24.5140 hn         1 OSQ       0.509000
     54 H1          24.5360    46.4810    20.9920 hc         1 OSQ       0.050700
@<TRIPOS>BOND
     1     1     3 ar  
     2     1    12 1   
     3     1    28 ar  
     4     2    11 1   
     5     2    18 1   
     6     2    31 1   
     7     2    54 1   
     8     3     4 ar  
     9     3    32 1   
    10     4     6 ar  
    11     4    33 1   
    12     5     9 1   
    13     5    10 1   
    14     5    25 1   
    15     5    26 1   
    16     6     7 ar  
    17     6    34 1   
    18     7     8 1   
    19     7    28 ar  
    20     8    13 1   
    21     8    27 2   
    22     9    13 1   
    23     9    35 1   
    24     9    36 1   
    25    10    15 1   
    26    10    37 1   
    27    10    38 1   
    28    11    15 1   
    29    11    39 1   
    30    11    40 1   
    31    12    14 1   
    32    12    41 1   
    33    13    42 1   
    34    14    17 1   
    35    14    30 2   
    36    15    24 1   
    37    16    17 1   
    38    16    43 1   
    39    16    44 1   
    40    16    45 1   
    41    17    29 1   
    42    17    46 1   
    43    18    19 1   
    44    18    47 1   
    45    18    48 1   
    46    19    20 ar  
    47    19    24 ar  
    48    20    21 ar  
    49    20    49 1   
    50    21    22 ar  
    51    21    50 1   
    52    22    23 ar  
    53    22    51 1   
    54    23    24 ar  
    55    23    52 1   
    56    28    29 1   
    57    29    53 1   
@<TRIPOS>SUBSTRUCTURE
     1 OSQ         1 TEMP              0 ****  ****    0 ROOT
