@<TRIPOS>MOLECULE
OSQ
   54    57     1     0     0
SMALL
bcc


@<TRIPOS>ATOM
      1 C4          26.5560    37.2080    27.2360 ca         1 OSQ       0.005600
      2 C14         24.8330    45.8420    21.4380 c6         1 OSQ      -0.089400
      3 C5          25.9150    38.0780    28.0950 ca         1 OSQ      -0.116000
      4 C6          25.7950    39.4230    27.7620 ca         1 OSQ      -0.151000
      5 C11         27.6100    42.2240    22.5180 c3         1 OSQ       0.373600
      6 C7          26.3480    39.8840    26.5850 ca         1 OSQ      -0.093000
      7 C8          27.0250    39.0230    25.7120 ca         1 OSQ      -0.207600
      8 C9          27.6300    39.5370    24.4560 c          1 OSQ       0.692700
      9 C10         28.6410    41.4800    23.3540 c3         1 OSQ       0.053000
     10 C12         26.9400    43.3840    23.2470 c3         1 OSQ       0.191800
     11 C13         25.9860    44.8620    21.5230 c6         1 OSQ       0.232800
     12 N1          26.6220    35.8430    27.5130 ns         1 OSQ      -0.465100
     13 N2          28.0380    40.8260    24.4860 ns         1 OSQ      -0.574900
     14 C3          27.4490    34.9660    26.8980 c          1 OSQ       0.709500
     15 N3          25.7770    43.9140    22.6030 nh         1 OSQ      -0.691000
     16 C1          28.7720    34.5740    24.7960 c3         1 OSQ      -0.089100
     17 C2          28.3550    35.5830    25.8470 c6         1 OSQ       0.144500
     18 C15         23.5460    45.0760    21.1960 c6         1 OSQ      -0.023100
     19 C16         23.3910    43.9500    22.1830 ca         1 OSQ      -0.143300
     20 C17         22.1260    43.4490    22.4610 ca         1 OSQ      -0.089000
     21 C18         21.9160    42.4160    23.3640 ca         1 OSQ      -0.173000
     22 C19         23.0190    41.8760    24.0080 ca         1 OSQ      -0.088000
     23 C20         24.2940    42.3530    23.7490 ca         1 OSQ      -0.197000
     24 C21         24.5150    43.4000    22.8390 ca         1 OSQ       0.206600
     25 F1          28.2390    42.6930    21.3940 f          1 OSQ      -0.229800
     26 F2          26.6660    41.3520    22.0660 f          1 OSQ      -0.229800
     27 O1          27.7670    38.8350    23.4610 o          1 OSQ      -0.599100
     28 C22         27.1030    37.6530    26.0180 ca         1 OSQ       0.192600
     29 N4          27.6620    36.6920    25.2210 nu         1 OSQ      -0.740600
     30 O2          27.4820    33.7860    27.1940 o          1 OSQ      -0.611500
     31 H2          24.7720    46.4170    22.3660 hc         1 OSQ       0.050700
     32 H3          25.4900    37.7020    29.0180 ha         1 OSQ       0.138000
     33 H4          25.2670    40.0980    28.4200 ha         1 OSQ       0.140000
     34 H5          26.2340    40.9310    26.3340 ha         1 OSQ       0.130000
     35 H6          29.1630    40.7560    22.7250 h1         1 OSQ       0.077200
     36 H7          29.3810    42.1930    23.7190 h1         1 OSQ       0.077200
     37 H8          26.7050    43.0750    24.2660 h1         1 OSQ       0.062700
     38 H9          27.6860    44.1770    23.3510 h1         1 OSQ       0.062700
     39 H10         26.1020    44.3540    20.5580 h1         1 OSQ       0.043200
     40 H11         26.9190    45.3930    21.7170 h1         1 OSQ       0.043200
     41 H12         26.0610    35.4880    28.2750 hn         1 OSQ       0.327500
     42 H13         28.1140    41.2880    25.3770 hn         1 OSQ       0.319500
     43 H14         29.3330    33.7580    25.2440 hc         1 OSQ       0.055033
     44 H15         27.9060    34.1620    24.2780 hc         1 OSQ       0.055033
     45 H16         29.4190    35.0510    24.0590 hc         1 OSQ       0.055033
     46 H17         29.2570    35.9290    26.3790 h1         1 OSQ       0.050700
     47 H18         22.6810    45.7390    21.2550 hc         1 OSQ       0.048700
     48 H19         23.5540    44.6760    20.1770 hc         1 OSQ       0.048700
     49 H20         21.2780    43.8910    21.9500 ha         1 OSQ       0.123000
     50 H21         20.9190    42.0440    23.5560 ha         1 OSQ       0.132000
     51 H22         22.8990    41.0650    24.7150 ha         1 OSQ       0.127000
     52 H23         25.1180    41.8800    24.2620 ha         1 OSQ       0.124000
     53 H24         28.0710    37.0260    24.3610 hn         1 OSQ       0.453800
     54 H1          25.0170    46.5510    20.6300 hc         1 OSQ       0.050700
@<TRIPOS>BOND
     1     1     3 ar  
     2     1    12 1   
     3     1    28 ar  
     4     2    11 1   
     5     2    18 1   
     6     2    31 1   
     7     2    54 1   
     8     3     4 ar  
     9     3    32 1   
    10     4     6 ar  
    11     4    33 1   
    12     5     9 1   
    13     5    10 1   
    14     5    25 1   
    15     5    26 1   
    16     6     7 ar  
    17     6    34 1   
    18     7     8 1   
    19     7    28 ar  
    20     8    13 1   
    21     8    27 2   
    22     9    13 1   
    23     9    35 1   
    24     9    36 1   
    25    10    15 1   
    26    10    37 1   
    27    10    38 1   
    28    11    15 1   
    29    11    39 1   
    30    11    40 1   
    31    12    14 1   
    32    12    41 1   
    33    13    42 1   
    34    14    17 1   
    35    14    30 2   
    36    15    24 1   
    37    16    17 1   
    38    16    43 1   
    39    16    44 1   
    40    16    45 1   
    41    17    29 1   
    42    17    46 1   
    43    18    19 1   
    44    18    47 1   
    45    18    48 1   
    46    19    20 ar  
    47    19    24 ar  
    48    20    21 ar  
    49    20    49 1   
    50    21    22 ar  
    51    21    50 1   
    52    22    23 ar  
    53    22    51 1   
    54    23    24 ar  
    55    23    52 1   
    56    28    29 1   
    57    29    53 1   
@<TRIPOS>SUBSTRUCTURE
     1 OSQ         1 TEMP              0 ****  ****    0 ROOT
