@<TRIPOS>MOLECULE
OSR
   75    79     1     0     0
SMALL
No Charge or Current Charge


@<TRIPOS>ATOM
      1 N1          40.6030    16.9450    -8.1330 n          1 OSR      -0.426800
      2 C7          36.2820    17.0020    -5.7030 ca         1 OSR      -0.137300
      3 C8          36.6450    17.3260    -4.3830 ca         1 OSR      -0.060000
      4 N2          42.1550    15.2730    -7.5210 ns         1 OSR      -0.510900
      5 C9          36.9720    16.3230    -3.4610 ca         1 OSR      -0.221000
      6 C5          36.6940    18.5110    -9.0970 c          1 OSR       0.556000
      7 C6          36.0260    18.1500    -6.6850 c3         1 OSR       0.147300
      8 N3          39.2190    18.2380    -9.7140 n          1 OSR      -0.427800
      9 C4          37.8250    18.5450   -10.1920 c6         1 OSR       0.032700
     10 C2          37.4200    17.6840   -11.4440 c3         1 OSR      -0.059700
     11 C30         40.3150    19.0630   -10.0390 c          1 OSR       0.568000
     12 C19         39.2440    17.3800    -8.5140 c6         1 OSR       0.265100
     13 C18         38.4870    18.0730    -7.3710 c6         1 OSR       0.083000
     14 N           37.0620    18.2750    -7.7470 n          1 OSR      -0.403800
     15 C17         36.2380    15.6390    -6.0990 ca         1 OSR       0.011000
     16 C16         35.8650    15.2670    -7.4120 ca         1 OSR      -0.116000
     17 C15         35.8520    13.9200    -7.8030 ca         1 OSR      -0.091000
     18 C14         36.2040    12.9210    -6.8860 ca         1 OSR      -0.121000
     19 C13         36.5650    13.2690    -5.5750 ca         1 OSR      -0.075000
     20 C12         36.5840    14.6230    -5.1690 ca         1 OSR      -0.061000
     21 C10         36.9510    14.9670    -3.8460 ca         1 OSR       0.168100
     22 C11         37.6850    14.2240    -1.6010 c3         1 OSR       0.148900
     23 O           35.5210    18.6850    -9.4050 o          1 OSR      -0.573000
     24 C29         41.6900    18.6540    -9.5130 c6         1 OSR      -0.187400
     25 C28         41.6030    18.0370    -8.1110 c6         1 OSR       0.099000
     26 C20         40.8880    15.5810    -7.9420 c          1 OSR       0.650100
     27 O2          40.0440    14.7170    -8.1140 o          1 OSR      -0.615100
     28 C21         42.5830    13.9360    -7.1100 c3         1 OSR       0.158300
     29 C22         42.2410    13.6760    -5.6480 ca         1 OSR      -0.092300
     30 C27         40.9830    13.1470    -5.2920 ca         1 OSR      -0.100500
     31 C26         40.6610    12.9240    -3.9420 ca         1 OSR      -0.079000
     32 C25         41.5980    13.2270    -2.9410 ca         1 OSR      -0.008900
     33 Br          41.1660    12.9180    -1.1040 br         1 OSR      -0.111100
     34 C24         42.8530    13.7560    -3.2850 ca         1 OSR      -0.079000
     35 C23         43.1730    13.9810    -4.6360 ca         1 OSR      -0.100500
     36 H1          36.6910    18.3680    -4.0710 ha         1 OSR       0.105000
     37 H2          42.7930    16.0440    -7.3840 hn         1 OSR       0.312500
     38 H3          37.2500    16.6220    -2.4550 ha         1 OSR       0.117000
     39 H4          36.7940    15.9840   -10.2320 hc         1 OSR       0.047700
     40 H5          38.3870    15.7870   -10.9490 hc         1 OSR       0.047700
     41 H6          35.9880    19.1010    -6.1380 h1         1 OSR       0.067200
     42 H7          35.0330    18.0070    -7.1290 h1         1 OSR       0.067200
     43 H8          37.8000    19.5950   -10.5130 h1         1 OSR       0.109700
     44 H9          38.3580    19.0860   -12.8420 hc         1 OSR       0.039367
     45 H10         39.3300    17.6330   -12.5270 hc         1 OSR       0.039367
     46 H11         37.9050    17.5480   -13.5840 hc         1 OSR       0.039367
     47 H12         36.4040    17.9810   -11.7320 hc         1 OSR       0.070700
     48 H13         38.6700    16.4750    -8.7620 h2         1 OSR       0.118700
     49 H14         38.5810    17.4570    -6.4680 h1         1 OSR       0.058200
     50 H15         38.9450    19.0480    -7.1560 h1         1 OSR       0.058200
     51 H16         35.5740    16.0130    -8.1450 ha         1 OSR       0.137000
     52 H17         35.5660    13.6500    -8.8170 ha         1 OSR       0.116000
     53 H18         36.1940    11.8760    -7.1880 ha         1 OSR       0.114000
     54 H19         36.8310    12.4760    -4.8800 ha         1 OSR       0.126000
     55 H20         37.9050    13.2840    -1.0800 h1         1 OSR       0.044033
     56 H21         38.5890    14.8460    -1.5770 h1         1 OSR       0.044033
     57 H22         36.8870    14.7390    -1.0500 h1         1 OSR       0.044033
     58 H23         36.6580    14.2540   -11.9360 hc         1 OSR       0.032700
     59 H24         35.7420    15.6590   -12.5190 hc         1 OSR       0.032700
     60 H25         37.3630    15.3090   -13.1710 hc         1 OSR       0.032700
     61 H26         42.0420    17.8550   -10.1780 hc         1 OSR       0.083200
     62 H27         42.3950    19.4920    -9.5790 hc         1 OSR       0.083200
     63 H28         42.5970    17.6870    -7.8040 h1         1 OSR       0.056700
     64 H29         41.2930    18.8040    -7.3870 h1         1 OSR       0.056700
     65 H30         42.1020    13.1810    -7.7480 h1         1 OSR       0.069200
     66 H31         43.6670    13.8500    -7.2580 h1         1 OSR       0.069200
     67 H32         40.2510    12.9120    -6.0620 ha         1 OSR       0.114500
     68 H33         39.6890    12.5170    -3.6760 ha         1 OSR       0.130000
     69 H34         43.5760    13.9920    -2.5090 ha         1 OSR       0.130000
     70 H35         44.1450    14.3960    -4.8950 ha         1 OSR       0.114500
     71 C3          38.3080    18.0030   -12.6730 c3         1 OSR      -0.085100
     72 O1          37.2830    13.9590    -2.9560 os         1 OSR      -0.346100
     73 C1          37.3720    16.1560   -11.1470 c3         1 OSR      -0.083400
     74 O3          40.1880    20.0690   -10.7210 o          1 OSR      -0.558000
     75 C           36.7460    15.2960   -12.2650 c3         1 OSR      -0.086100
@<TRIPOS>BOND
     1     1    12 1   
     2     1    25 1   
     3     1    26 1   
     4     2     3 ar  
     5     2     7 1   
     6     2    15 ar  
     7     3     5 ar  
     8     3    36 1   
     9     4    26 1   
    10     4    28 1   
    11     4    37 1   
    12     5    21 ar  
    13     5    38 1   
    14     6     9 1   
    15     6    14 1   
    16     6    23 2   
    17     7    14 1   
    18     7    41 1   
    19     7    42 1   
    20     8     9 1   
    21     8    11 1   
    22     8    12 1   
    23     9    10 1   
    24     9    43 1   
    25    10    47 1   
    26    10    71 1   
    27    10    73 1   
    28    11    24 1   
    29    11    74 2   
    30    12    13 1   
    31    12    48 1   
    32    13    14 1   
    33    13    49 1   
    34    13    50 1   
    35    15    16 ar  
    36    15    20 ar  
    37    16    17 ar  
    38    16    51 1   
    39    17    18 ar  
    40    17    52 1   
    41    18    19 ar  
    42    18    53 1   
    43    19    20 ar  
    44    19    54 1   
    45    20    21 ar  
    46    21    72 1   
    47    22    55 1   
    48    22    56 1   
    49    22    57 1   
    50    22    72 1   
    51    24    25 1   
    52    24    61 1   
    53    24    62 1   
    54    25    63 1   
    55    25    64 1   
    56    26    27 2   
    57    28    29 1   
    58    28    65 1   
    59    28    66 1   
    60    29    30 ar  
    61    29    35 ar  
    62    30    31 ar  
    63    30    67 1   
    64    31    32 ar  
    65    31    68 1   
    66    32    33 1   
    67    32    34 ar  
    68    34    35 ar  
    69    34    69 1   
    70    35    70 1   
    71    39    73 1   
    72    40    73 1   
    73    44    71 1   
    74    45    71 1   
    75    46    71 1   
    76    58    75 1   
    77    59    75 1   
    78    60    75 1   
    79    73    75 1   
@<TRIPOS>SUBSTRUCTURE
     1 OSR         1 TEMP              0 ****  ****    0 ROOT
