@<TRIPOS>MOLECULE
OSR
   75    79     1     0     0
SMALL
abcg2


@<TRIPOS>ATOM
      1 N1          40.9640    17.1900    -7.9460 n          1 OSR      -0.426800
      2 C7          36.2140    17.3280    -5.6960 ca         1 OSR      -0.137300
      3 C8          36.7100    17.3340    -4.4170 ca         1 OSR      -0.060000
      4 N2          42.8260    15.7860    -7.7560 ns         1 OSR      -0.510900
      5 C9          36.5490    16.2460    -3.5350 ca         1 OSR      -0.221000
      6 C5          37.0350    18.4410    -8.9560 c          1 OSR       0.556000
      7 C6          36.4340    18.5260    -6.5860 c3         1 OSR       0.147300
      8 N3          39.4350    18.1300    -9.5720 n          1 OSR      -0.427800
      9 C4          38.0620    18.2220   -10.0640 c6         1 OSR       0.032700
     10 C2          37.6160    17.0540   -10.9840 c3         1 OSR      -0.059700
     11 C30         40.3990    18.9100   -10.1290 c          1 OSR       0.568000
     12 C19         39.5880    17.3470    -8.3350 c6         1 OSR       0.265100
     13 C18         38.7650    18.0010    -7.2360 c6         1 OSR       0.083000
     14 N           37.3990    18.2710    -7.6690 n          1 OSR      -0.403800
     15 C17         35.5050    16.1740    -6.1520 ca         1 OSR       0.011000
     16 C16         34.9370    16.0920    -7.4470 ca         1 OSR      -0.116000
     17 C15         34.2730    14.9650    -7.8650 ca         1 OSR      -0.091000
     18 C14         34.1370    13.8570    -7.0070 ca         1 OSR      -0.121000
     19 C13         34.6600    13.9050    -5.7380 ca         1 OSR      -0.075000
     20 C12         35.3480    15.0530    -5.2800 ca         1 OSR      -0.061000
     21 C10         35.8820    15.1200    -3.9550 ca         1 OSR       0.168100
     22 C11         36.1630    14.0290    -1.8470 c3         1 OSR       0.148900
     23 O           35.8870    18.7420    -9.2930 o          1 OSR      -0.573000
     24 C29         41.7800    18.8460    -9.5150 c6         1 OSR      -0.187400
     25 C28         41.7540    18.4120    -8.0590 c6         1 OSR       0.099000
     26 C20         41.4860    15.9050    -7.9510 c          1 OSR       0.650100
     27 O2          40.7690    14.9150    -8.1100 o          1 OSR      -0.615100
     28 C21         43.4330    14.4840    -7.5770 c3         1 OSR       0.158300
     29 C22         43.2010    13.8450    -6.2220 ca         1 OSR      -0.092300
     30 C27         43.4200    12.4760    -6.0700 ca         1 OSR      -0.100500
     31 C26         43.2540    11.8520    -4.8400 ca         1 OSR      -0.079000
     32 C25         42.8590    12.6170    -3.7510 ca         1 OSR      -0.008900
     33 BR          42.6160    11.7680    -2.0490 br         1 OSR      -0.111100
     34 C24         42.6310    13.9790    -3.8710 ca         1 OSR      -0.079000
     35 C23         42.8050    14.5850    -5.1120 ca         1 OSR      -0.100500
     36 H1          37.2490    18.2050    -4.0630 ha         1 OSR       0.105000
     37 H2          43.3750    16.5850    -7.4960 hn         1 OSR       0.312500
     38 H3          36.9590    16.3120    -2.5380 ha         1 OSR       0.117000
     39 H4          37.0650    15.8520    -9.2660 hc         1 OSR       0.047700
     40 H5          38.4510    15.2380   -10.1480 hc         1 OSR       0.047700
     41 H6          36.8170    19.3500    -5.9810 h1         1 OSR       0.067200
     42 H7          35.5130    18.8530    -7.0590 h1         1 OSR       0.067200
     43 H8          38.0260    19.1270   -10.6670 h1         1 OSR       0.109700
     44 H9          38.5360    17.8920   -12.7680 hc         1 OSR       0.039367
     45 H10         39.5530    16.7300   -11.9080 hc         1 OSR       0.039367
     46 H11         38.1900    16.1630   -12.8740 hc         1 OSR       0.039367
     47 H12         36.6200    17.3520   -11.3200 hc         1 OSR       0.070700
     48 H13         39.1960    16.3540    -8.5170 h2         1 OSR       0.118700
     49 H14         38.7250    17.3140    -6.3910 h1         1 OSR       0.058200
     50 H15         39.2300    18.9310    -6.8980 h1         1 OSR       0.058200
     51 H16         35.0230    16.9340    -8.1190 ha         1 OSR       0.137000
     52 H17         33.8530    14.9280    -8.8620 ha         1 OSR       0.116000
     53 H18         33.6130    12.9730    -7.3450 ha         1 OSR       0.114000
     54 H19         34.5500    13.0620    -5.0710 ha         1 OSR       0.126000
     55 H20         35.8790    13.0700    -1.4220 h1         1 OSR       0.044033
     56 H21         37.2500    14.1330    -1.8270 h1         1 OSR       0.044033
     57 H22         35.7090    14.8390    -1.2720 h1         1 OSR       0.044033
     58 H23         36.4530    13.7930   -10.4750 hc         1 OSR       0.032700
     59 H24         35.5390    15.1660   -11.1030 hc         1 OSR       0.032700
     60 H25         36.9050    14.5190   -12.0170 hc         1 OSR       0.032700
     61 H26         42.3700    18.1390   -10.1050 hc         1 OSR       0.083200
     62 H27         42.2350    19.8300    -9.6290 hc         1 OSR       0.083200
     63 H28         42.7570    18.2790    -7.6700 h1         1 OSR       0.056700
     64 H29         41.2900    19.1820    -7.4410 h1         1 OSR       0.056700
     65 H30         43.0730    13.8130    -8.3560 h1         1 OSR       0.069200
     66 H31         44.5060    14.6090    -7.7360 h1         1 OSR       0.069200
     67 H32         43.7220    11.8820    -6.9260 ha         1 OSR       0.114500
     68 H33         43.4250    10.7900    -4.7360 ha         1 OSR       0.130000
     69 H34         42.3240    14.5650    -3.0150 ha         1 OSR       0.130000
     70 H35         42.6210    15.6470    -5.2070 ha         1 OSR       0.114500
     71 C3          38.5270    16.9570   -12.2060 c3         1 OSR      -0.085100
     72 O1          35.6750    14.0210    -3.1880 os         1 OSR      -0.346100
     73 C1          37.4670    15.7010   -10.2700 c3         1 OSR      -0.083400
     74 O3          40.1830    19.6270   -11.1070 o          1 OSR      -0.558000
     75 C           36.5410    14.7390   -11.0110 c3         1 OSR      -0.086100
@<TRIPOS>BOND
     1     1    12 1   
     2     1    25 1   
     3     1    26 1   
     4     2     3 ar  
     5     2     7 1   
     6     2    15 ar  
     7     3     5 ar  
     8     3    36 1   
     9     4    26 1   
    10     4    28 1   
    11     4    37 1   
    12     5    21 ar  
    13     5    38 1   
    14     6     9 1   
    15     6    14 1   
    16     6    23 2   
    17     7    14 1   
    18     7    41 1   
    19     7    42 1   
    20     8     9 1   
    21     8    11 1   
    22     8    12 1   
    23     9    10 1   
    24     9    43 1   
    25    10    47 1   
    26    10    71 1   
    27    10    73 1   
    28    11    24 1   
    29    11    74 2   
    30    12    13 1   
    31    12    48 1   
    32    13    14 1   
    33    13    49 1   
    34    13    50 1   
    35    15    16 ar  
    36    15    20 ar  
    37    16    17 ar  
    38    16    51 1   
    39    17    18 ar  
    40    17    52 1   
    41    18    19 ar  
    42    18    53 1   
    43    19    20 ar  
    44    19    54 1   
    45    20    21 ar  
    46    21    72 1   
    47    22    55 1   
    48    22    56 1   
    49    22    57 1   
    50    22    72 1   
    51    24    25 1   
    52    24    61 1   
    53    24    62 1   
    54    25    63 1   
    55    25    64 1   
    56    26    27 2   
    57    28    29 1   
    58    28    65 1   
    59    28    66 1   
    60    29    30 ar  
    61    29    35 ar  
    62    30    31 ar  
    63    30    67 1   
    64    31    32 ar  
    65    31    68 1   
    66    32    33 1   
    67    32    34 ar  
    68    34    35 ar  
    69    34    69 1   
    70    35    70 1   
    71    39    73 1   
    72    40    73 1   
    73    44    71 1   
    74    45    71 1   
    75    46    71 1   
    76    58    75 1   
    77    59    75 1   
    78    60    75 1   
    79    73    75 1   
@<TRIPOS>SUBSTRUCTURE
     1 OSR         1 TEMP              0 ****  ****    0 ROOT
