@<TRIPOS>MOLECULE
OSS
   40    39     1     0     0
SMALL
abcg2


@<TRIPOS>ATOM
      1 C1           0.5210    -0.4630    -6.1970 c          1 OSS       0.717000
      2 O1          -0.2430     0.4800    -6.4810 o          1 OSS      -0.742000
      3 O2           1.0910    -1.2220    -7.0110 o          1 OSS      -0.742000
      4 C2           0.8150    -0.7330    -4.7110 c3         1 OSS      -0.205400
      5 C3           0.0450     0.1180    -3.7150 c3         1 OSS      -0.054400
      6 C4           0.4030    -0.1980    -2.2660 c3         1 OSS      -0.080400
      7 C5          -0.3740     0.6740    -1.2840 c3         1 OSS      -0.080400
      8 C6          -0.1520     0.3150     0.1790 c3         1 OSS       0.106300
      9 C7           1.2720     0.6000     0.6550 c3         1 OSS      -0.058400
     10 C8           1.5500     0.1280     2.0760 c3         1 OSS       0.059600
     11 S9           3.3220     0.2950     2.4360 ss         1 OSS      -0.425000
     12 C10          3.3390    -0.2930     4.1640 c3         1 OSS       0.299800
     13 N11          4.7050    -0.5910     4.5130 n8         1 OSS      -0.985200
     14 S12         -1.2840     1.2790     1.2640 ss         1 OSS      -0.296000
     15 S13         -3.1300     0.5140     0.8050 ss         1 OSS      -0.207000
     16 C14         -3.2670    -0.9190     1.9120 c3         1 OSS       0.035600
     17 C15         -3.4550    -0.5060     3.3580 c3         1 OSS       0.160600
     18 O16         -3.5950    -1.6800     4.1280 oh         1 OSS      -0.664000
     19 H21          1.8920    -0.5980    -4.5520 hc         1 OSS       0.015700
     20 H22          0.6320    -1.7950    -4.5110 hc         1 OSS       0.015700
     21 H31         -1.0300    -0.0260    -3.8570 hc         1 OSS       0.041200
     22 H32          0.2370     1.1770    -3.9080 hc         1 OSS       0.041200
     23 H41          1.4800    -0.0660    -2.1270 hc         1 OSS       0.027200
     24 H42          0.1950    -1.2540    -2.0590 hc         1 OSS       0.027200
     25 H51         -1.4410     0.5770    -1.5080 hc         1 OSS       0.056200
     26 H52         -0.1180     1.7280    -1.4360 hc         1 OSS       0.056200
     27 H6          -0.3790    -0.7440     0.3420 h1         1 OSS       0.063700
     28 H71          1.4890     1.6680     0.5590 hc         1 OSS       0.072700
     29 H72          1.9520     0.0850    -0.0270 hc         1 OSS       0.072700
     30 H81          1.2590    -0.9190     2.1900 h1         1 OSS       0.057200
     31 H82          0.9820     0.7100     2.8040 h1         1 OSS       0.057200
     32 H101         2.6430    -1.1370     4.2330 h2         1 OSS       0.040700
     33 H102         2.9660     0.4970     4.8150 h2         1 OSS       0.040700
     34 HN11         4.7950    -0.6530     5.5180 hn         1 OSS       0.402500
     35 HN12         4.9750    -1.4900     4.1360 hn         1 OSS       0.402500
     36 H141        -4.1410    -1.4650     1.5460 h1         1 OSS       0.084200
     37 H142        -2.3950    -1.5610     1.7860 h1         1 OSS       0.084200
     38 H151        -2.5900     0.0870     3.6780 h1         1 OSS       0.031700
     39 H152        -4.3390     0.1400     3.4330 h1         1 OSS       0.031700
     40 HO6         -3.6450    -1.4240     5.0540 ho         1 OSS       0.439000
@<TRIPOS>BOND
     1     1     2 1   
     2     1     3 1   
     3     1     4 1   
     4     4     5 1   
     5     4    19 1   
     6     4    20 1   
     7     5     6 1   
     8     5    21 1   
     9     5    22 1   
    10     6     7 1   
    11     6    23 1   
    12     6    24 1   
    13     7     8 1   
    14     7    25 1   
    15     7    26 1   
    16     8     9 1   
    17     8    14 1   
    18     8    27 1   
    19     9    10 1   
    20     9    28 1   
    21     9    29 1   
    22    10    11 1   
    23    10    30 1   
    24    10    31 1   
    25    11    12 1   
    26    12    13 1   
    27    12    32 1   
    28    12    33 1   
    29    13    34 1   
    30    13    35 1   
    31    14    15 1   
    32    15    16 1   
    33    16    17 1   
    34    16    36 1   
    35    16    37 1   
    36    17    18 1   
    37    17    38 1   
    38    17    39 1   
    39    18    40 1   
@<TRIPOS>SUBSTRUCTURE
     1 OSS         1 TEMP              0 ****  ****    0 ROOT
