@<TRIPOS>MOLECULE
OSS
   40    39     1     0     0
SMALL
No Charge or Current Charge


@<TRIPOS>ATOM
      1 C1           0.4860    -0.3320    -6.2800 c          1 OSS       0.717000
      2 O1           1.1020     0.5730    -6.8210 o          1 OSS      -0.742000
      3 O2          -0.4570    -0.9120    -6.7970 o          1 OSS      -0.742000
      4 C2           0.8800    -0.7230    -4.8440 c3         1 OSS      -0.205400
      5 C3           0.0870     0.1260    -3.8210 c3         1 OSS      -0.054400
      6 C4           0.4310    -0.2130    -2.3530 c3         1 OSS      -0.080400
      7 C5          -0.3620     0.6420    -1.3350 c3         1 OSS      -0.080400
      8 C6          -0.1410     0.2540     0.1510 c3         1 OSS       0.106300
      9 C7           1.3050     0.5000     0.6520 c3         1 OSS      -0.058400
     10 C8           1.5440     0.0500     2.1090 c3         1 OSS       0.059600
     11 S9           3.3180     0.2850     2.5740 ss         1 OSS      -0.425000
     12 C10          3.2660    -0.3180     4.3000 c3         1 OSS       0.299800
     13 N11          4.6460    -0.1630     4.7530 n8         1 OSS      -0.985200
     14 S12         -1.3350     1.2020     1.2060 ss         1 OSS      -0.296000
     15 S13         -3.2020     0.3650     0.7550 ss         1 OSS      -0.207000
     16 C14         -3.3630    -1.0450     1.9410 c3         1 OSS       0.035600
     17 C15         -3.4160    -0.5490     3.4000 c3         1 OSS       0.160600
     18 O16         -3.5980    -1.6600     4.2880 oh         1 OSS      -0.664000
     19 H21          1.9390    -0.5000    -4.6630 hc         1 OSS       0.015700
     20 H22          0.6090    -1.7670    -4.6420 hc         1 OSS       0.015700
     21 H31         -0.9870    -0.0250    -3.9840 hc         1 OSS       0.041200
     22 H32          0.2890     1.1900    -4.0010 hc         1 OSS       0.041200
     23 H41          1.5070    -0.0630    -2.2040 hc         1 OSS       0.027200
     24 H42          0.2240    -1.2750    -2.1700 hc         1 OSS       0.027200
     25 H51         -1.4290     0.5440    -1.5680 hc         1 OSS       0.056200
     26 H52         -0.1100     1.7010    -1.4740 hc         1 OSS       0.056200
     27 H6          -0.3700    -0.8130     0.2700 h1         1 OSS       0.063700
     28 H71          1.5480     1.5660     0.5580 hc         1 OSS       0.072700
     29 H72          2.0090    -0.0450     0.0140 hc         1 OSS       0.072700
     30 H81          1.2840    -1.0110     2.2170 h1         1 OSS       0.057200
     31 H82          0.9190     0.6340     2.7970 h1         1 OSS       0.057200
     32 H101         2.9580    -1.3720     4.3190 h2         1 OSS       0.040700
     33 H102         2.5790     0.2940     4.8980 h2         1 OSS       0.040700
     34 HN11         4.7380    -0.6020     5.6760 hn         1 OSS       0.402500
     35 HN12         5.2400    -0.7350     4.1460 hn         1 OSS       0.402500
     36 H141        -4.2840    -1.5940     1.7100 h1         1 OSS       0.084200
     37 H142        -2.5110    -1.7220     1.8100 h1         1 OSS       0.084200
     38 H151        -2.4830    -0.0200     3.6390 h1         1 OSS       0.031700
     39 H152        -4.2440     0.1640     3.5070 h1         1 OSS       0.031700
     40 HO6         -3.6330    -1.2960     5.2010 ho         1 OSS       0.439000
@<TRIPOS>BOND
     1     1     2 1   
     2     1     3 1   
     3     1     4 1   
     4     4     5 1   
     5     4    19 1   
     6     4    20 1   
     7     5     6 1   
     8     5    21 1   
     9     5    22 1   
    10     6     7 1   
    11     6    23 1   
    12     6    24 1   
    13     7     8 1   
    14     7    25 1   
    15     7    26 1   
    16     8     9 1   
    17     8    14 1   
    18     8    27 1   
    19     9    10 1   
    20     9    28 1   
    21     9    29 1   
    22    10    11 1   
    23    10    30 1   
    24    10    31 1   
    25    11    12 1   
    26    12    13 1   
    27    12    32 1   
    28    12    33 1   
    29    13    34 1   
    30    13    35 1   
    31    14    15 1   
    32    15    16 1   
    33    16    17 1   
    34    16    36 1   
    35    16    37 1   
    36    17    18 1   
    37    17    38 1   
    38    17    39 1   
    39    18    40 1   
@<TRIPOS>SUBSTRUCTURE
     1 OSS         1 TEMP              0 ****  ****    0 ROOT
