@<TRIPOS>MOLECULE
OST
   40    41     1     0     0
SMALL
bcc


@<TRIPOS>ATOM
      1 C5           0.4790     2.1670     2.8270 c3         1 OST       0.128700
      2 O1           1.0160     1.2900     1.8410 os         1 OST      -0.396900
      3 C1           1.3970     1.8230     0.6870 c          1 OST       0.667300
      4 O3           1.3240     3.0110     0.4520 o          1 OST      -0.567000
      5 C2           1.9080     0.8020    -0.2360 ce         1 OST      -0.217400
      6 C3           2.4120     1.2330    -1.4070 c2         1 OST       0.117100
      7 O2           2.8900     0.3970    -2.3100 os         1 OST      -0.299900
      8 C4           3.4040     0.9810    -3.5050 c3         1 OST       0.119700
      9 C6           1.8930    -0.6340     0.1260 ca         1 OST      -0.001800
     10 C11          3.0920    -1.2720     0.4290 ca         1 OST      -0.110000
     11 C7           0.6900    -1.3600     0.1740 ca         1 OST      -0.031800
     12 C8           0.7380    -2.7130     0.5230 ca         1 OST      -0.121000
     13 C9           1.9370    -3.3340     0.8280 ca         1 OST      -0.128000
     14 C10          3.1230    -2.6130     0.7810 ca         1 OST      -0.127000
     15 C12         -0.5740    -0.7010    -0.1560 ce         1 OST      -0.090200
     16 C13         -1.7810    -1.0830     0.2780 cf         1 OST      -0.110200
     17 C14         -3.0580    -0.4460    -0.0450 ca         1 OST      -0.048800
     18 C15         -4.2340    -1.0060     0.4630 ca         1 OST      -0.118500
     19 C16         -5.4730    -0.4450     0.1880 ca         1 OST      -0.130000
     20 C19         -3.1650     0.7020    -0.8380 ca         1 OST      -0.118500
     21 C18         -4.4000     1.2640    -1.1110 ca         1 OST      -0.130000
     22 C17         -5.5620     0.6930    -0.6010 ca         1 OST      -0.127000
     23 H51          0.2410     1.5430     3.6830 h1         1 OST       0.047033
     24 H52          1.2000     2.9280     3.1260 h1         1 OST       0.047033
     25 H53         -0.4310     2.6560     2.4770 h1         1 OST       0.047033
     26 H3           2.4360     2.2940    -1.6450 h4         1 OST       0.146000
     27 H41          4.2080     1.6840    -3.2860 h1         1 OST       0.048700
     28 H42          3.7960     0.1670    -4.1080 h1         1 OST       0.048700
     29 H43          2.6170     1.4910    -4.0620 h1         1 OST       0.048700
     30 H11          4.0130    -0.7030     0.3980 ha         1 OST       0.130000
     31 H8          -0.1740    -3.2960     0.5350 ha         1 OST       0.129000
     32 H9           1.9460    -4.3840     1.0900 ha         1 OST       0.129000
     33 H10          4.0650    -3.0910     1.0130 ha         1 OST       0.130000
     34 H12         -0.4920     0.1660    -0.8030 ha         1 OST       0.126000
     35 H13         -1.8540    -1.9340     0.9490 ha         1 OST       0.122000
     36 H15         -4.1760    -1.8930     1.0830 ha         1 OST       0.129000
     37 H16         -6.3690    -0.8990     0.5910 ha         1 OST       0.129000
     38 H19         -2.2790     1.1710    -1.2470 ha         1 OST       0.129000
     39 H18         -4.4590     2.1530    -1.7250 ha         1 OST       0.129000
     40 H17         -6.5260     1.1360    -0.8140 ha         1 OST       0.129000
@<TRIPOS>BOND
     1     1     2 1   
     2     1    23 1   
     3     1    24 1   
     4     1    25 1   
     5     2     3 1   
     6     3     4 2   
     7     3     5 1   
     8     5     6 2   
     9     5     9 1   
    10     6     7 1   
    11     6    26 1   
    12     7     8 1   
    13     8    27 1   
    14     8    28 1   
    15     8    29 1   
    16     9    10 ar  
    17     9    11 ar  
    18    10    14 ar  
    19    10    30 1   
    20    11    12 ar  
    21    11    15 1   
    22    12    13 ar  
    23    12    31 1   
    24    13    14 ar  
    25    13    32 1   
    26    14    33 1   
    27    15    16 2   
    28    15    34 1   
    29    16    17 1   
    30    16    35 1   
    31    17    18 ar  
    32    17    20 ar  
    33    18    19 ar  
    34    18    36 1   
    35    19    22 ar  
    36    19    37 1   
    37    20    21 ar  
    38    20    38 1   
    39    21    22 ar  
    40    21    39 1   
    41    22    40 1   
@<TRIPOS>SUBSTRUCTURE
     1 OST         1 TEMP              0 ****  ****    0 ROOT
