@<TRIPOS>MOLECULE
OST
   40    41     1     0     0
SMALL
No Charge or Current Charge


@<TRIPOS>ATOM
      1 C5           0.5550     2.0860     3.0150 c3         1 OST       0.151900
      2 O1           1.0760     1.2450     1.9710 os         1 OST      -0.420100
      3 C1           1.4540     1.8360     0.7930 c          1 OST       0.618300
      4 O3           1.4020     3.0420     0.5850 o          1 OST      -0.518000
      5 C2           1.9590     0.8430    -0.2120 ce         1 OST      -0.217400
      6 C3           2.4170     1.2620    -1.4130 c2         1 OST       0.067100
      7 O2           2.8860     0.4000    -2.3720 os         1 OST      -0.323100
      8 C4           3.3460     0.9490    -3.6170 c3         1 OST       0.142900
      9 C6           1.9430    -0.6060     0.1470 ca         1 OST      -0.001800
     10 C11          3.1590    -1.2360     0.4730 ca         1 OST      -0.092000
     11 C7           0.7360    -1.3480     0.1760 ca         1 OST      -0.031800
     12 C8           0.7760    -2.7120     0.5380 ca         1 OST      -0.103000
     13 C9           1.9940    -3.3300     0.8650 ca         1 OST      -0.110000
     14 C10          3.1870    -2.5930     0.8320 ca         1 OST      -0.109000
     15 C12         -0.5650    -0.7090    -0.1860 ce         1 OST      -0.140200
     16 C13         -1.8170    -1.0440     0.2390 cf         1 OST      -0.160200
     17 C14         -3.1200    -0.4310    -0.0930 ca         1 OST      -0.048800
     18 C15         -4.2960    -0.9640     0.4750 ca         1 OST      -0.100500
     19 C16         -5.5510    -0.4040     0.1820 ca         1 OST      -0.112000
     20 C19         -3.2250     0.6760    -0.9640 ca         1 OST      -0.100500
     21 C18         -4.4820     1.2350    -1.2570 ca         1 OST      -0.112000
     22 C17         -5.6450     0.6970    -0.6850 ca         1 OST      -0.109000
     23 H51          0.2920     1.4840     3.8940 h1         1 OST       0.047033
     24 H52          1.2980     2.8330     3.3240 h1         1 OST       0.047033
     25 H53         -0.3490     2.6110     2.6800 h1         1 OST       0.047033
     26 H3           2.4380     2.3180    -1.6930 h4         1 OST       0.196000
     27 H41          4.1840     1.6390    -3.4530 h1         1 OST       0.048700
     28 H42          3.6900     0.1470    -4.2830 h1         1 OST       0.048700
     29 H43          2.5400     1.4930    -4.1250 h1         1 OST       0.048700
     30 H11          4.0850    -0.6660     0.4500 ha         1 OST       0.112000
     31 H8          -0.1350    -3.3030     0.5530 ha         1 OST       0.111000
     32 H9           2.0130    -4.3830     1.1400 ha         1 OST       0.111000
     33 H10          4.1310    -3.0710     1.0840 ha         1 OST       0.112000
     34 H12         -0.4630     0.1310    -0.8700 ha         1 OST       0.176000
     35 H13         -1.8920    -1.8780     0.9380 ha         1 OST       0.172000
     36 H15         -4.2400    -1.8160     1.1490 ha         1 OST       0.111000
     37 H16         -6.4510    -0.8230     0.6260 ha         1 OST       0.111000
     38 H19         -2.3420     1.1130    -1.4190 ha         1 OST       0.111000
     39 H18         -4.5520     2.0880    -1.9290 ha         1 OST       0.111000
     40 H17         -6.6170     1.1310    -0.9130 ha         1 OST       0.111000
@<TRIPOS>BOND
     1     1     2 1   
     2     1    23 1   
     3     1    24 1   
     4     1    25 1   
     5     2     3 1   
     6     3     4 2   
     7     3     5 1   
     8     5     6 2   
     9     5     9 1   
    10     6     7 1   
    11     6    26 1   
    12     7     8 1   
    13     8    27 1   
    14     8    28 1   
    15     8    29 1   
    16     9    10 ar  
    17     9    11 ar  
    18    10    14 ar  
    19    10    30 1   
    20    11    12 ar  
    21    11    15 1   
    22    12    13 ar  
    23    12    31 1   
    24    13    14 ar  
    25    13    32 1   
    26    14    33 1   
    27    15    16 2   
    28    15    34 1   
    29    16    17 1   
    30    16    35 1   
    31    17    18 ar  
    32    17    20 ar  
    33    18    19 ar  
    34    18    36 1   
    35    19    22 ar  
    36    19    37 1   
    37    20    21 ar  
    38    20    38 1   
    39    21    22 ar  
    40    21    39 1   
    41    22    40 1   
@<TRIPOS>SUBSTRUCTURE
     1 OST         1 TEMP              0 ****  ****    0 ROOT
