@<TRIPOS>MOLECULE
OSX
   56    61     1     0     0
SMALL
No Charge or Current Charge


@<TRIPOS>ATOM
      1 N3          37.7040     2.5880    -0.2760 nc         1 OSX      -0.633000
      2 C4          38.6090     3.5260    -0.5370 cd         1 OSX       0.408300
      3 C6          36.9230     3.4750    -2.2760 cd         1 OSX      -0.107000
      4 C7          36.0740     3.6650    -3.4330 cd         1 OSX      -0.149000
      5 C8          36.2890     4.6190    -4.4500 cd         1 OSX       0.263900
      6 C13         33.5690     2.9280    -7.2150 c3         1 OSX      -0.056400
      7 C15         34.0510     0.3350    -7.4180 cx         1 OSX      -0.129400
      8 C17         32.1680     4.1810    -5.4550 ca         1 OSX      -0.119600
      9 C20         30.0720     5.9800    -4.9700 cp         1 OSX      -0.014000
     10 C21         30.0550     4.7130    -4.3310 ca         1 OSX      -0.161000
     11 C24         28.9610     6.9470    -4.7130 cp         1 OSX      -0.052000
     12 C11         34.9340     2.9740    -3.7420 cc         1 OSX      -0.104000
     13 C12         33.3100     3.1810    -5.7040 c3         1 OSX       0.167600
     14 C14         34.5280     1.7670    -7.4770 cx         1 OSX      -0.133700
     15 C16         34.4340     0.9520    -8.7450 cx         1 OSX      -0.129400
     16 C18         32.1700     5.4370    -6.0880 ca         1 OSX      -0.056000
     17 C19         31.1260     6.3310    -5.8410 ca         1 OSX      -0.113000
     18 C2          36.7420     2.5520    -1.2580 cc         1 OSX       0.270300
     19 C25         27.6540     6.6730    -5.1910 ca         1 OSX       0.200000
     20 C27         26.5920     7.5750    -4.9690 ca         1 OSX       0.080000
     21 C29         26.8120     8.7700    -4.2630 ca         1 OSX      -0.061000
     22 C30         28.0930     9.0670    -3.7690 ca         1 OSX      -0.110000
     23 C31         29.1430     8.1620    -3.9920 ca         1 OSX       0.039800
     24 C33         31.3100     9.2990    -3.9930 cc         1 OSX       0.399400
     25 F26         27.4190     5.5320    -5.8830 f          1 OSX      -0.145000
     26 N10         34.5270     3.5530    -4.9430 na         1 OSX       0.120800
     27 N22         31.1440     3.8620    -4.5480 na         1 OSX       0.451300
     28 N32         30.4360     8.3710    -3.5110 na         1 OSX      -0.020500
     29 N34         32.3670     9.2290    -3.2030 nd         1 OSX      -0.375000
     30 N35         32.0840     8.2680    -2.2460 nd         1 OSX      -0.028000
     31 N36         30.8930     7.7490    -2.4050 nc         1 OSX      -0.174800
     32 N9          35.3560     4.5760    -5.3820 nc         1 OSX      -0.528800
     33 O23         31.2090     2.8240    -3.8750 o          1 OSX      -0.518000
     34 S5          38.3580     4.4470    -2.0140 ss         1 OSX      -0.051400
     35 Cl28        24.9740     7.2220    -5.5760 cl         1 OSX      -0.144000
     36 H1          39.4640     3.7470     0.0890 h5         1 OSX       0.050100
     37 H2          37.0910     5.3420    -4.5360 h4         1 OSX       0.043100
     38 H3          33.9640     3.8340    -7.6880 hc         1 OSX       0.060700
     39 H4          32.6050     2.7260    -7.6990 hc         1 OSX       0.060700
     40 H5          32.9950     0.1530    -7.2320 hc         1 OSX       0.072950
     41 H6          34.7220    -0.4050    -6.9890 hc         1 OSX       0.072950
     42 H7          29.2720     4.3940    -3.6470 h4         1 OSX       0.179000
     43 H8          35.7900     0.9410    -0.1710 hc         1 OSX       0.047033
     44 H9          34.6700     2.0130    -1.0130 hc         1 OSX       0.047033
     45 H10         35.6400     0.8250    -1.9250 hc         1 OSX       0.047033
     46 H11         34.3850     2.1740    -3.2690 h4         1 OSX       0.165000
     47 H12         33.0020     2.2050    -5.3100 h1         1 OSX       0.100700
     48 H13         35.5320     1.9620    -7.1040 hc         1 OSX       0.091700
     49 H14         33.6350     1.1810    -9.4460 hc         1 OSX       0.072950
     50 H15         35.3630     0.6240    -9.2070 hc         1 OSX       0.072950
     51 H16         32.9750     5.7240    -6.7610 ha         1 OSX       0.145000
     52 H17         31.1240     7.3020    -6.3320 ha         1 OSX       0.131000
     53 H18         25.9890     9.4620    -4.0940 ha         1 OSX       0.147000
     54 H19         28.2650     9.9850    -3.2110 ha         1 OSX       0.143000
     55 C1          35.6510     1.5290    -1.0860 c3         1 OSX      -0.116400
     56 H20         31.1370     9.9360    -4.8510 h5         1 OSX       0.077100
@<TRIPOS>BOND
     1     1     2 2   
     2     1    18 1   
     3     2    34 1   
     4     2    36 1   
     5     3     4 1   
     6     3    18 2   
     7     3    34 1   
     8     4     5 1   
     9     4    12 2   
    10     5    32 2   
    11     5    37 1   
    12     6    13 1   
    13     6    14 1   
    14     6    38 1   
    15     6    39 1   
    16     7    14 1   
    17     7    15 1   
    18     7    40 1   
    19     7    41 1   
    20     8    13 1   
    21     8    16 ar  
    22     8    27 2   
    23     9    10 ar  
    24     9    11 1   
    25     9    17 ar  
    26    10    27 1   
    27    10    42 1   
    28    11    19 ar  
    29    11    23 ar  
    30    12    26 1   
    31    12    46 1   
    32    13    26 1   
    33    13    47 1   
    34    14    15 1   
    35    14    48 1   
    36    15    49 1   
    37    15    50 1   
    38    16    17 ar  
    39    16    51 1   
    40    17    52 1   
    41    18    55 1   
    42    19    20 ar  
    43    19    25 1   
    44    20    21 ar  
    45    20    35 1   
    46    21    22 ar  
    47    21    53 1   
    48    22    23 ar  
    49    22    54 1   
    50    23    28 1   
    51    24    28 1   
    52    24    29 2   
    53    24    56 1   
    54    26    32 1   
    55    27    33 1   
    56    28    31 1   
    57    29    30 1   
    58    30    31 2   
    59    43    55 1   
    60    44    55 1   
    61    45    55 1   
@<TRIPOS>SUBSTRUCTURE
     1 OSX         1 TEMP              0 ****  ****    0 ROOT
