@<TRIPOS>MOLECULE
OSX
   56    61     1     0     0
SMALL
abcg2


@<TRIPOS>ATOM
      1 N3          38.0000     1.6550    -0.6000 nc         1 OSX      -0.633000
      2 C4          38.4000     2.8310    -0.2130 cd         1 OSX       0.408300
      3 C6          36.7530     3.0220    -2.0020 cd         1 OSX      -0.107000
      4 C7          35.8350     3.4770    -3.0260 cd         1 OSX      -0.149000
      5 C8          35.8220     4.7350    -3.6820 cd         1 OSX       0.263900
      6 C13         33.6770     3.1390    -6.8680 c3         1 OSX      -0.056400
      7 C15         34.2350     0.5990    -6.9940 cx         1 OSX      -0.129400
      8 C17         32.0320     4.3170    -5.3190 ca         1 OSX      -0.119600
      9 C20         29.9500     6.1010    -4.9050 cp         1 OSX      -0.014000
     10 C21         30.2010     5.0690    -4.0220 ca         1 OSX      -0.161000
     11 C24         28.8410     7.0470    -4.6360 cp         1 OSX      -0.052000
     12 C11         34.7700     2.7940    -3.6010 cc         1 OSX      -0.104000
     13 C12         33.1330     3.3020    -5.4460 c3         1 OSX       0.167600
     14 C14         34.6960     2.0300    -6.9550 cx         1 OSX      -0.133700
     15 C16         34.8290     1.2380    -8.2240 cx         1 OSX      -0.129400
     16 C18         31.7930     5.3380    -6.2190 ca         1 OSX      -0.056000
     17 C19         30.7590     6.2390    -6.0310 ca         1 OSX      -0.113000
     18 C2          37.0680     1.7390    -1.6120 cc         1 OSX       0.270300
     19 C25         27.5220     6.6100    -4.5970 ca         1 OSX       0.200000
     20 C27         26.4580     7.4840    -4.4070 ca         1 OSX       0.080000
     21 C29         26.7040     8.8390    -4.2410 ca         1 OSX      -0.061000
     22 C30         28.0100     9.3060    -4.2570 ca         1 OSX      -0.110000
     23 C31         29.0560     8.4170    -4.4500 ca         1 OSX       0.039800
     24 C33         30.9770     9.8160    -5.2500 cc         1 OSX       0.399400
     25 F26         27.2670     5.3060    -4.7800 f          1 OSX      -0.145000
     26 N10         34.2150     3.6200    -4.5110 na         1 OSX       0.120800
     27 N22         31.2220     4.1950    -4.2170 na         1 OSX       0.451300
     28 N32         30.3900     8.9160    -4.4430 na         1 OSX      -0.020500
     29 N34         32.2250     9.9670    -4.8710 nd         1 OSX      -0.375000
     30 N35         32.3920     9.1390    -3.8080 nd         1 OSX      -0.028000
     31 N36         31.3080     8.5040    -3.5390 nc         1 OSX      -0.174800
     32 N9          34.8480     4.8090    -4.5790 nc         1 OSX      -0.528800
     33 O23         31.4230     3.2550    -3.3540 o          1 OSX      -0.518000
     34 S5          37.6690     4.1490    -1.0470 ss         1 OSX      -0.051400
     35 CL28        24.8390     6.8690    -4.3840 cl         1 OSX      -0.144000
     36 H1          39.1350     3.0020     0.5610 h5         1 OSX       0.050100
     37 H2          36.4890     5.5710    -3.5320 h4         1 OSX       0.043100
     38 H3          34.1210     4.0770    -7.2050 hc         1 OSX       0.060700
     39 H4          32.8340     2.9190    -7.5270 hc         1 OSX       0.060700
     40 H5          33.1660     0.4210    -6.9870 hc         1 OSX       0.072950
     41 H6          34.8200    -0.1430    -6.4680 hc         1 OSX       0.072950
     42 H7          29.6290     4.8950    -3.1240 h4         1 OSX       0.179000
     43 H8          37.1390    -0.3620    -1.9320 hc         1 OSX       0.047033
     44 H9          35.4990     0.2800    -1.8020 hc         1 OSX       0.047033
     45 H10         36.4230     0.5460    -3.2770 hc         1 OSX       0.047033
     46 H11         34.3650     1.8150    -3.4210 h4         1 OSX       0.165000
     47 H12         32.7360     2.3460    -5.1060 h1         1 OSX       0.100700
     48 H13         35.6170     2.2160    -6.4150 hc         1 OSX       0.091700
     49 H14         34.1570     1.4820    -9.0380 hc         1 OSX       0.072950
     50 H15         35.8190     0.9290    -8.5320 hc         1 OSX       0.072950
     51 H16         32.4330     5.4270    -7.0840 ha         1 OSX       0.145000
     52 H17         30.5800     7.0310    -6.7450 ha         1 OSX       0.131000
     53 H18         25.8790     9.5200    -4.0880 ha         1 OSX       0.147000
     54 H19         28.2180    10.3560    -4.1030 ha         1 OSX       0.143000
     55 C1          36.5010     0.4820    -2.1900 c3         1 OSX      -0.116400
     56 H20         30.4800    10.3060    -6.0710 h5         1 OSX       0.077100
@<TRIPOS>BOND
     1     1     2 2   
     2     1    18 1   
     3     2    34 1   
     4     2    36 1   
     5     3     4 1   
     6     3    18 2   
     7     3    34 1   
     8     4     5 1   
     9     4    12 2   
    10     5    32 2   
    11     5    37 1   
    12     6    13 1   
    13     6    14 1   
    14     6    38 1   
    15     6    39 1   
    16     7    14 1   
    17     7    15 1   
    18     7    40 1   
    19     7    41 1   
    20     8    13 1   
    21     8    16 ar  
    22     8    27 2   
    23     9    10 ar  
    24     9    11 1   
    25     9    17 ar  
    26    10    27 1   
    27    10    42 1   
    28    11    19 ar  
    29    11    23 ar  
    30    12    26 1   
    31    12    46 1   
    32    13    26 1   
    33    13    47 1   
    34    14    15 1   
    35    14    48 1   
    36    15    49 1   
    37    15    50 1   
    38    16    17 ar  
    39    16    51 1   
    40    17    52 1   
    41    18    55 1   
    42    19    20 ar  
    43    19    25 1   
    44    20    21 ar  
    45    20    35 1   
    46    21    22 ar  
    47    21    53 1   
    48    22    23 ar  
    49    22    54 1   
    50    23    28 1   
    51    24    28 1   
    52    24    29 2   
    53    24    56 1   
    54    26    32 1   
    55    27    33 1   
    56    28    31 1   
    57    29    30 1   
    58    30    31 2   
    59    43    55 1   
    60    44    55 1   
    61    45    55 1   
@<TRIPOS>SUBSTRUCTURE
     1 OSX         1 TEMP              0 ****  ****    0 ROOT
