@<TRIPOS>MOLECULE
OSY
   37    39     1     0     0
SMALL
No Charge or Current Charge


@<TRIPOS>ATOM
      1 N28        124.9680   252.1600   357.1310 n8         1 OSY      -0.997200
      2 C27        123.8070   251.7560   356.3160 c3         1 OSY       0.196100
      3 C24        122.6890   251.1850   357.1790 ca         1 OSY      -0.084300
      4 C23        121.6390   252.0100   357.6230 ca         1 OSY      -0.100000
      5 C22        120.6040   251.4800   358.4140 ca         1 OSY      -0.101500
      6 C25        122.6890   249.8240   357.5360 ca         1 OSY      -0.100000
      7 C26        121.6530   249.2950   358.3250 ca         1 OSY      -0.101500
      8 C21        120.5880   250.1110   358.7820 cp         1 OSY      -0.035000
      9 C08        119.4840   249.5470   359.6230 cp         1 OSY      -0.011000
     10 C09        119.0100   248.2280   359.4240 ca         1 OSY      -0.095000
     11 C07        118.8780   250.3150   360.6450 ca         1 OSY      -0.122000
     12 C06        117.8450   249.7890   361.4340 ca         1 OSY      -0.077000
     13 C05        117.3830   248.4710   361.2220 ca         1 OSY      -0.123000
     14 C04        116.3410   247.9170   362.0060 ca         1 OSY       0.007700
     15 C11        115.6470   248.6880   363.1250 c3         1 OSY      -0.055800
     16 C03        115.9480   246.6000   361.7220 ca         1 OSY      -0.215000
     17 C02        116.5950   245.9190   360.6940 ca         1 OSY       0.621900
     18 N02        116.3130   244.6650   360.3410 nv         1 OSY      -1.072900
     19 N01        117.5720   246.4090   359.9500 nb         1 OSY      -0.762000
     20 C10        117.9750   247.6770   360.2000 ca         1 OSY       0.325000
     21 H1         125.6540   252.6230   356.5240 hn         1 OSY       0.396000
     22 H2         124.6710   252.9030   357.7750 hn         1 OSY       0.396000
     23 H4         123.4400   252.6320   355.7630 h1         1 OSY       0.034200
     24 H5         124.1330   251.0040   355.5840 h1         1 OSY       0.034200
     25 H6         121.6210   253.0640   357.3530 ha         1 OSY       0.119000
     26 H7         119.7980   252.1370   358.7320 ha         1 OSY       0.115000
     27 H8         123.4970   249.1750   357.2040 ha         1 OSY       0.119000
     28 H9         121.6870   248.2430   358.5970 ha         1 OSY       0.115000
     29 H10        119.4440   247.6180   358.6380 ha         1 OSY       0.131000
     30 H11        119.2220   251.3270   360.8400 ha         1 OSY       0.114000
     31 H12        117.4150   250.4180   362.2090 ha         1 OSY       0.110000
     32 H13        115.1650   249.5940   362.7390 hc         1 OSY       0.048033
     33 H14        114.8700   248.0860   363.6110 hc         1 OSY       0.048033
     34 H15        116.3620   248.9860   363.9010 hc         1 OSY       0.048033
     35 H16        115.1550   246.1170   362.2850 ha         1 OSY       0.117000
     36 H17        117.0170   244.2330   359.7560 hn         1 OSY       0.479000
     37 H18        115.8790   244.0700   361.0380 hn         1 OSY       0.479000
@<TRIPOS>BOND
     1     1     2 1   
     2     1    21 1   
     3     1    22 1   
     4     2     3 1   
     5     2    23 1   
     6     2    24 1   
     7     3     4 ar  
     8     3     6 ar  
     9     4     5 ar  
    10     4    25 1   
    11     5     8 ar  
    12     5    26 1   
    13     6     7 ar  
    14     6    27 1   
    15     7     8 ar  
    16     7    28 1   
    17     8     9 1   
    18     9    10 ar  
    19     9    11 ar  
    20    10    20 ar  
    21    10    29 1   
    22    11    12 ar  
    23    11    30 1   
    24    12    13 ar  
    25    12    31 1   
    26    13    14 ar  
    27    13    20 ar  
    28    14    15 1   
    29    14    16 ar  
    30    15    32 1   
    31    15    33 1   
    32    15    34 1   
    33    16    17 ar  
    34    16    35 1   
    35    17    18 1   
    36    17    19 ar  
    37    18    36 1   
    38    18    37 1   
    39    19    20 ar  
@<TRIPOS>SUBSTRUCTURE
     1 OSY         1 TEMP              0 ****  ****    0 ROOT
