@<TRIPOS>MOLECULE
OSY
   37    39     1     0     0
SMALL
abcg2


@<TRIPOS>ATOM
      1 N28        125.0110   251.4780   356.7750 n8         1 OSY      -0.997200
      2 C27        123.6850   251.9370   356.3980 c3         1 OSY       0.196100
      3 C24        122.6110   251.3400   357.2700 ca         1 OSY      -0.084300
      4 C23        121.5110   252.0960   357.6610 ca         1 OSY      -0.100000
      5 C22        120.4990   251.5460   358.4330 ca         1 OSY      -0.101500
      6 C25        122.6750   250.0120   357.6900 ca         1 OSY      -0.100000
      7 C26        121.6650   249.4600   358.4600 ca         1 OSY      -0.101500
      8 C21        120.5540   250.2140   358.8430 cp         1 OSY      -0.035000
      9 C08        119.4710   249.6200   359.6510 cp         1 OSY      -0.011000
     10 C09        119.0970   248.3050   359.4730 ca         1 OSY      -0.095000
     11 C07        118.7930   250.3920   360.6210 ca         1 OSY      -0.122000
     12 C06        117.7850   249.8450   361.3720 ca         1 OSY      -0.077000
     13 C05        117.3940   248.5040   361.2000 ca         1 OSY      -0.123000
     14 C04        116.3510   247.8840   361.9550 ca         1 OSY       0.007700
     15 C11        115.6020   248.6470   363.0020 c3         1 OSY      -0.055800
     16 C03        116.0600   246.5810   361.6920 ca         1 OSY      -0.215000
     17 C02        116.7880   245.8720   360.6870 ca         1 OSY       0.621900
     18 N02        116.4460   244.5900   360.4130 nv         1 OSY      -1.072900
     19 N01        117.7540   246.4210   359.9890 nb         1 OSY      -0.762000
     20 C10        118.0630   247.7180   360.2310 ca         1 OSY       0.325000
     21 H1         125.6850   251.8210   356.1030 hn         1 OSY       0.396000
     22 H2         125.2700   251.8870   357.6640 hn         1 OSY       0.396000
     23 H4         123.5720   253.0300   356.4030 h1         1 OSY       0.034200
     24 H5         123.5070   251.6260   355.3640 h1         1 OSY       0.034200
     25 H6         121.4370   253.1330   357.3540 ha         1 OSY       0.119000
     26 H7         119.6510   252.1630   358.7050 ha         1 OSY       0.115000
     27 H8         123.5320   249.4090   357.4180 ha         1 OSY       0.119000
     28 H9         121.7560   248.4300   358.7850 ha         1 OSY       0.115000
     29 H10        119.5780   247.6880   358.7230 ha         1 OSY       0.131000
     30 H11        119.0850   251.4210   360.7910 ha         1 OSY       0.114000
     31 H12        117.2910   250.4590   362.1140 ha         1 OSY       0.110000
     32 H13        115.0860   249.5060   362.5690 hc         1 OSY       0.048033
     33 H14        114.8590   248.0180   363.4870 hc         1 OSY       0.048033
     34 H15        116.2730   249.0320   363.7710 hc         1 OSY       0.048033
     35 H16        115.2750   246.0710   362.2370 ha         1 OSY       0.117000
     36 H17        117.0830   244.0440   359.8570 hn         1 OSY       0.479000
     37 H18        115.9020   244.0740   361.0830 hn         1 OSY       0.479000
@<TRIPOS>BOND
     1     1     2 1   
     2     1    21 1   
     3     1    22 1   
     4     2     3 1   
     5     2    23 1   
     6     2    24 1   
     7     3     4 ar  
     8     3     6 ar  
     9     4     5 ar  
    10     4    25 1   
    11     5     8 ar  
    12     5    26 1   
    13     6     7 ar  
    14     6    27 1   
    15     7     8 ar  
    16     7    28 1   
    17     8     9 1   
    18     9    10 ar  
    19     9    11 ar  
    20    10    20 ar  
    21    10    29 1   
    22    11    12 ar  
    23    11    30 1   
    24    12    13 ar  
    25    12    31 1   
    26    13    14 ar  
    27    13    20 ar  
    28    14    15 1   
    29    14    16 ar  
    30    15    32 1   
    31    15    33 1   
    32    15    34 1   
    33    16    17 ar  
    34    16    35 1   
    35    17    18 1   
    36    17    19 ar  
    37    18    36 1   
    38    18    37 1   
    39    19    20 ar  
@<TRIPOS>SUBSTRUCTURE
     1 OSY         1 TEMP              0 ****  ****    0 ROOT
