@<TRIPOS>MOLECULE
OSZ
   83    87     1     0     0
SMALL
abcg2


@<TRIPOS>ATOM
      1 C10         52.0520    67.9340    23.0930 c6         1 OSZ       0.134300
      2 C13         53.5260    62.8400    21.3630 c3         1 OSZ      -0.080400
      3 C15         51.3430    62.3170    20.0630 c6         1 OSZ      -0.064700
      4 C17         49.1310    61.6100    21.0730 c6         1 OSZ      -0.072900
      5 C20         50.8470    61.8320    18.7010 c6         1 OSZ      -0.069900
      6 C21         54.4120    65.8880    18.0690 ca         1 OSZ      -0.157600
      7 C22         53.9230    66.8130    17.1510 ca         1 OSZ      -0.068000
      8 C24         55.6920    65.3710    17.8770 ca         1 OSZ      -0.068000
      9 C26         55.9800    66.7250    15.8950 ca         1 OSZ      -0.070300
     10 O01         52.3040    65.6020    19.1090 o          1 OSZ      -0.609100
     11 C02         53.5170    65.4690    19.1910 c          1 OSZ       0.617700
     12 N03         54.1290    64.9690    20.2830 ns         1 OSZ      -0.505900
     13 C04         53.4350    64.3660    21.4050 c3         1 OSZ       0.036700
     14 C05         54.0410    64.9240    22.7030 c          1 OSZ       0.590100
     15 N06         53.7880    66.2110    23.0150 n          1 OSZ      -0.400800
     16 C07         54.4450    66.8260    24.1620 c6         1 OSZ       0.054000
     17 C08         53.4370    67.5950    25.0070 c6         1 OSZ       0.134300
     18 N09         52.6620    68.5610    24.2500 n7         1 OSZ      -0.844400
     19 C11         53.0270    67.1550    22.2130 c6         1 OSZ       0.054000
     20 O12         54.7430    64.2070    23.4040 o          1 OSZ      -0.606100
     21 C16         50.6510    61.5380    21.1820 c6         1 OSZ      -0.069900
     22 C18         48.6480    61.1300    19.7090 c6         1 OSZ      -0.074400
     23 C19         49.3280    61.9020    18.5830 c6         1 OSZ      -0.072900
     24 C23         54.6990    67.2310    16.0820 ca         1 OSZ      -0.112000
     25 C25         56.4630    65.7870    16.8040 ca         1 OSZ      -0.112000
     26 C27         56.8480    67.1230    14.7230 c3         1 OSZ       0.151300
     27 N28         56.4000    68.2830    14.0030 ns         1 OSZ      -0.503900
     28 C29         56.5560    69.5340    14.4900 c          1 OSZ       0.666700
     29 C30         56.0140    70.6190    13.6880 cc         1 OSZ      -0.384600
     30 C31         56.0000    71.9630    14.0720 cd         1 OSZ       0.351000
     31 N32         56.3710    72.5290    15.2360 nv         1 OSZ      -1.086000
     32 N33         55.4230    72.6370    13.0530 na         1 OSZ       0.159000
     33 C34         55.1350    74.0170    12.9860 ca         1 OSZ       0.015800
     34 C35         56.1470    74.9520    13.1700 ca         1 OSZ      -0.109000
     35 C36         55.8440    76.3060    13.1190 ca         1 OSZ      -0.099000
     36 C37         54.5470    76.7240    12.8590 ca         1 OSZ      -0.106000
     37 C38         53.5450    75.7820    12.6530 ca         1 OSZ      -0.099000
     38 C39         53.8330    74.4280    12.7230 ca         1 OSZ      -0.109000
     39 N40         55.0420    71.8170    12.0370 nd         1 OSZ      -0.511800
     40 C41         55.3970    70.6210    12.4150 cc         1 OSZ       0.304900
     41 O42         57.1330    69.7390    15.5580 o          1 OSZ      -0.645100
     42 H1          51.5640    68.6980    22.4850 h1         1 OSZ       0.062200
     43 H2          51.2700    67.2520    23.4400 h1         1 OSZ       0.062200
     44 H3          53.0770    62.4410    22.2750 hc         1 OSZ       0.059200
     45 H4          54.5780    62.5470    21.3920 hc         1 OSZ       0.059200
     46 H5          51.0490    63.3710    20.1510 hc         1 OSZ       0.059700
     47 H6          48.8050    62.6440    21.2300 hc         1 OSZ       0.038200
     48 H7          48.6700    61.0190    21.8690 hc         1 OSZ       0.038200
     49 H8          51.1760    60.7970    18.5450 hc         1 OSZ       0.036700
     50 H9          51.3140    62.4270    17.9100 hc         1 OSZ       0.036700
     51 H10         52.9270    67.2170    17.2750 ha         1 OSZ       0.122000
     52 H11         56.1050    64.6220    18.5400 ha         1 OSZ       0.122000
     53 H12         55.1350    64.9160    20.2960 hn         1 OSZ       0.320500
     54 H13         52.3890    64.6640    21.3400 h1         1 OSZ       0.093700
     55 H14         54.9320    66.0580    24.7570 h1         1 OSZ       0.060200
     56 H15         55.2230    67.5090    23.8020 h1         1 OSZ       0.060200
     57 H16         52.7460    66.8860    25.4740 h1         1 OSZ       0.062200
     58 H17         53.9650    68.1080    25.8130 h1         1 OSZ       0.062200
     59 H18         53.2680    69.3140    23.9440 hn         1 OSZ       0.405000
     60 H20         53.7190    67.8480    21.7200 h1         1 OSZ       0.060200
     61 H21         52.4620    66.6530    21.4340 h1         1 OSZ       0.060200
     62 H22         53.1440    61.1560    20.1100 hc         1 OSZ       0.040200
     63 H23         53.2980    62.6490    19.2290 hc         1 OSZ       0.040200
     64 H24         50.9660    60.4880    21.1310 hc         1 OSZ       0.036700
     65 H25         50.9670    61.9070    22.1610 hc         1 OSZ       0.036700
     66 H26         47.5620    61.2260    19.6340 hc         1 OSZ       0.035700
     67 H27         48.8720    60.0620    19.6030 hc         1 OSZ       0.035700
     68 H28         49.0120    62.9500    18.6230 hc         1 OSZ       0.038200
     69 H29         49.0070    61.5190    17.6110 hc         1 OSZ       0.038200
     70 H30         54.2930    67.9570    15.3890 ha         1 OSZ       0.118000
     71 H31         57.4540    65.3710    16.6710 ha         1 OSZ       0.118000
     72 H32         56.8850    66.2950    14.0130 h1         1 OSZ       0.061700
     73 H33         57.8720    67.2720    15.0700 h1         1 OSZ       0.061700
     74 H34         55.8620    68.1340    13.1670 hn         1 OSZ       0.316500
     75 H35         56.9490    71.9650    15.8360 hn         1 OSZ       0.501500
     76 H36         56.5140    73.5230    15.2940 hn         1 OSZ       0.501500
     77 H37         57.1680    74.6310    13.3330 ha         1 OSZ       0.128500
     78 H38         56.6310    77.0340    13.2670 ha         1 OSZ       0.120000
     79 H39         54.3160    77.7800    12.8120 ha         1 OSZ       0.119000
     80 H40         52.5330    76.1020    12.4460 ha         1 OSZ       0.120000
     81 H41         53.0540    73.6910    12.5780 ha         1 OSZ       0.128500
     82 H42         55.2150    69.7800    11.7610 h4         1 OSZ       0.033100
     83 C14         52.8670    62.2150    20.1370 c3         1 OSZ      -0.070400
@<TRIPOS>BOND
     1     1    18 1   
     2     1    19 1   
     3     1    42 1   
     4     1    43 1   
     5     2    13 1   
     6     2    44 1   
     7     2    45 1   
     8     2    83 1   
     9     3     5 1   
    10     3    21 1   
    11     3    46 1   
    12     3    83 1   
    13     4    21 1   
    14     4    22 1   
    15     4    47 1   
    16     4    48 1   
    17     5    23 1   
    18     5    49 1   
    19     5    50 1   
    20     6     7 ar  
    21     6     8 ar  
    22     6    11 1   
    23     7    24 ar  
    24     7    51 1   
    25     8    25 ar  
    26     8    52 1   
    27     9    24 ar  
    28     9    25 ar  
    29     9    26 1   
    30    10    11 2   
    31    11    12 1   
    32    12    13 1   
    33    12    53 1   
    34    13    14 1   
    35    13    54 1   
    36    14    15 1   
    37    14    20 2   
    38    15    16 1   
    39    15    19 1   
    40    16    17 1   
    41    16    55 1   
    42    16    56 1   
    43    17    18 1   
    44    17    57 1   
    45    17    58 1   
    46    18    59 1   
    47    19    60 1   
    48    19    61 1   
    49    21    64 1   
    50    21    65 1   
    51    22    23 1   
    52    22    66 1   
    53    22    67 1   
    54    23    68 1   
    55    23    69 1   
    56    24    70 1   
    57    25    71 1   
    58    26    27 1   
    59    26    72 1   
    60    26    73 1   
    61    27    28 1   
    62    27    74 1   
    63    28    29 1   
    64    28    41 2   
    65    29    30 2   
    66    29    40 1   
    67    30    31 1   
    68    30    32 1   
    69    31    75 1   
    70    31    76 1   
    71    32    33 1   
    72    32    39 1   
    73    33    34 ar  
    74    33    38 ar  
    75    34    35 ar  
    76    34    77 1   
    77    35    36 ar  
    78    35    78 1   
    79    36    37 ar  
    80    36    79 1   
    81    37    38 ar  
    82    37    80 1   
    83    38    81 1   
    84    39    40 2   
    85    40    82 1   
    86    62    83 1   
    87    63    83 1   
@<TRIPOS>SUBSTRUCTURE
     1 OSZ         1 TEMP              0 ****  ****    0 ROOT
