@<TRIPOS>MOLECULE
OSZ
   83    87     1     0     0
SMALL
No Charge or Current Charge


@<TRIPOS>ATOM
      1 C10         50.6810    67.9610    22.1640 c6         1 OSZ       0.134300
      2 C13         53.8040    63.2580    21.5320 c3         1 OSZ      -0.080400
      3 C15         51.9320    61.6920    20.4900 c6         1 OSZ      -0.064700
      4 C17         49.9230    60.7140    21.7600 c6         1 OSZ      -0.072900
      5 C20         51.7070    60.6360    19.3710 c6         1 OSZ      -0.069900
      6 C21         53.5780    65.6720    17.5030 ca         1 OSZ      -0.157600
      7 C22         52.8800    65.6810    16.2730 ca         1 OSZ      -0.068000
      8 C24         54.9090    66.1570    17.5240 ca         1 OSZ      -0.068000
      9 C26         54.8120    66.6370    15.1310 ca         1 OSZ      -0.070300
     10 O01         51.7310    64.7470    18.7240 o          1 OSZ      -0.609100
     11 C02         52.8860    65.1480    18.7450 c          1 OSZ       0.617700
     12 N03         53.6220    65.1610    19.9120 ns         1 OSZ      -0.505900
     13 C04         53.1670    64.6450    21.2290 c3         1 OSZ       0.036700
     14 C05         53.4390    65.7080    22.3500 c          1 OSZ       0.590100
     15 N06         53.0380    67.0520    22.1310 n          1 OSZ      -0.400800
     16 C07         53.4540    68.1560    23.0460 c6         1 OSZ       0.054000
     17 C08         52.2690    68.6690    23.9100 c6         1 OSZ       0.134300
     18 N09         51.1100    69.0670    23.0650 n7         1 OSZ      -0.844400
     19 C11         51.8560    67.4260    21.2970 c6         1 OSZ       0.054000
     20 O12         54.0790    65.4180    23.3560 o          1 OSZ      -0.606100
     21 C16         51.4060    61.1530    21.8530 c6         1 OSZ      -0.069900
     22 C18         49.7120    59.6690    20.6390 c6         1 OSZ      -0.074400
     23 C19         50.2220    60.2040    19.2800 c6         1 OSZ      -0.072900
     24 C23         53.4900    66.1590    15.1010 ca         1 OSZ      -0.112000
     25 C25         55.5140    66.6340    16.3490 ca         1 OSZ      -0.112000
     26 C27         55.4720    67.1600    13.8630 c3         1 OSZ       0.151300
     27 N28         55.3050    68.6080    13.7320 ns         1 OSZ      -0.503900
     28 C29         56.2420    69.5410    14.1020 c          1 OSZ       0.666700
     29 C30         55.8120    70.9250    13.8990 cc         1 OSZ      -0.384600
     30 C31         56.5220    72.0410    14.1760 cd         1 OSZ       0.351000
     31 N32         57.7770    72.1900    14.7040 nv         1 OSZ      -1.086000
     32 N33         55.6580    73.0830    13.7900 na         1 OSZ       0.159000
     33 C34         56.1040    74.3980    13.9310 ca         1 OSZ       0.015800
     34 C35         56.6880    75.0680    12.8370 ca         1 OSZ      -0.109000
     35 C36         57.1360    76.3930    12.9770 ca         1 OSZ      -0.099000
     36 C37         56.9990    77.0550    14.2100 ca         1 OSZ      -0.106000
     37 C38         56.4130    76.3930    15.3020 ca         1 OSZ      -0.099000
     38 C39         55.9650    75.0670    15.1630 ca         1 OSZ      -0.109000
     39 N40         54.4390    72.6730    13.2800 nd         1 OSZ      -0.511800
     40 C41         54.5770    71.3620    13.3690 cc         1 OSZ       0.304900
     41 O42         57.3340    69.2250    14.5530 o          1 OSZ      -0.645100
     42 H1          49.8670    68.3070    21.5080 h1         1 OSZ       0.062200
     43 H2          50.2810    67.1330    22.7700 h1         1 OSZ       0.062200
     44 H3          53.5340    62.9480    22.5490 hc         1 OSZ       0.059200
     45 H4          54.8950    63.3700    21.5350 hc         1 OSZ       0.059200
     46 H5          51.3530    62.5870    20.2280 hc         1 OSZ       0.059700
     47 H6          49.2900    61.5920    21.5710 hc         1 OSZ       0.038200
     48 H7          49.5970    60.2980    22.7230 hc         1 OSZ       0.038200
     49 H8          52.3340    59.7530    19.5590 hc         1 OSZ       0.036700
     50 H9          52.0260    61.0430    18.4020 hc         1 OSZ       0.036700
     51 H10         51.8560    65.3160    16.2210 ha         1 OSZ       0.122000
     52 H11         55.4910    66.1750    18.4410 ha         1 OSZ       0.122000
     53 H12         54.5620    65.5270    19.8450 hn         1 OSZ       0.320500
     54 H13         52.0780    64.5210    21.2090 h1         1 OSZ       0.093700
     55 H14         54.2730    67.8350    23.7060 h1         1 OSZ       0.060200
     56 H15         53.8440    68.9860    22.4400 h1         1 OSZ       0.060200
     57 H16         51.9610    67.8720    24.6040 h1         1 OSZ       0.062200
     58 H17         52.6000    69.5240    24.5180 h1         1 OSZ       0.062200
     59 H18         51.3970    69.8630    22.4810 hn         1 OSZ       0.405000
     60 H20         52.1610    68.2010    20.5790 h1         1 OSZ       0.060200
     61 H21         51.4880    66.5750    20.7130 h1         1 OSZ       0.060200
     62 H22         54.0420    61.2420    20.8070 hc         1 OSZ       0.040200
     63 H23         53.7680    62.4110    19.5430 hc         1 OSZ       0.040200
     64 H24         52.0210    60.3030    22.1810 hc         1 OSZ       0.036700
     65 H25         51.4950    61.9220    22.6310 hc         1 OSZ       0.036700
     66 H26         48.6470    59.4120    20.5640 hc         1 OSZ       0.035700
     67 H27         50.2410    58.7400    20.8940 hc         1 OSZ       0.035700
     68 H28         49.6070    61.0580    18.9630 hc         1 OSZ       0.038200
     69 H29         50.1060    59.4320    18.5080 hc         1 OSZ       0.038200
     70 H30         52.9310    66.1580    14.1680 ha         1 OSZ       0.118000
     71 H31         56.5360    67.0060    16.3860 ha         1 OSZ       0.118000
     72 H32         55.0230    66.6750    12.9870 h1         1 OSZ       0.061700
     73 H33         56.5400    66.9040    13.8670 h1         1 OSZ       0.061700
     74 H34         54.4270    68.9560    13.3740 hn         1 OSZ       0.316500
     75 H35         58.3550    71.3580    14.8120 hn         1 OSZ       0.501500
     76 H36         58.2490    73.0910    14.6550 hn         1 OSZ       0.501500
     77 H37         56.7930    74.5590    11.8810 ha         1 OSZ       0.128500
     78 H38         57.5870    76.9070    12.1310 ha         1 OSZ       0.120000
     79 H39         57.3460    78.0810    14.3170 ha         1 OSZ       0.119000
     80 H40         56.3060    76.9060    16.2550 ha         1 OSZ       0.120000
     81 H41         55.5110    74.5580    16.0110 ha         1 OSZ       0.128500
     82 H42         53.7540    70.7450    13.0320 h4         1 OSZ       0.033100
     83 C14         53.4350    62.1180    20.5460 c3         1 OSZ      -0.070400
@<TRIPOS>BOND
     1     1    18 1   
     2     1    19 1   
     3     1    42 1   
     4     1    43 1   
     5     2    13 1   
     6     2    44 1   
     7     2    45 1   
     8     2    83 1   
     9     3     5 1   
    10     3    21 1   
    11     3    46 1   
    12     3    83 1   
    13     4    21 1   
    14     4    22 1   
    15     4    47 1   
    16     4    48 1   
    17     5    23 1   
    18     5    49 1   
    19     5    50 1   
    20     6     7 ar  
    21     6     8 ar  
    22     6    11 1   
    23     7    24 ar  
    24     7    51 1   
    25     8    25 ar  
    26     8    52 1   
    27     9    24 ar  
    28     9    25 ar  
    29     9    26 1   
    30    10    11 2   
    31    11    12 1   
    32    12    13 1   
    33    12    53 1   
    34    13    14 1   
    35    13    54 1   
    36    14    15 1   
    37    14    20 2   
    38    15    16 1   
    39    15    19 1   
    40    16    17 1   
    41    16    55 1   
    42    16    56 1   
    43    17    18 1   
    44    17    57 1   
    45    17    58 1   
    46    18    59 1   
    47    19    60 1   
    48    19    61 1   
    49    21    64 1   
    50    21    65 1   
    51    22    23 1   
    52    22    66 1   
    53    22    67 1   
    54    23    68 1   
    55    23    69 1   
    56    24    70 1   
    57    25    71 1   
    58    26    27 1   
    59    26    72 1   
    60    26    73 1   
    61    27    28 1   
    62    27    74 1   
    63    28    29 1   
    64    28    41 2   
    65    29    30 2   
    66    29    40 1   
    67    30    31 1   
    68    30    32 1   
    69    31    75 1   
    70    31    76 1   
    71    32    33 1   
    72    32    39 1   
    73    33    34 ar  
    74    33    38 ar  
    75    34    35 ar  
    76    34    77 1   
    77    35    36 ar  
    78    35    78 1   
    79    36    37 ar  
    80    36    79 1   
    81    37    38 ar  
    82    37    80 1   
    83    38    81 1   
    84    39    40 2   
    85    40    82 1   
    86    62    83 1   
    87    63    83 1   
@<TRIPOS>SUBSTRUCTURE
     1 OSZ         1 TEMP              0 ****  ****    0 ROOT
