@<TRIPOS>MOLECULE
OT0
   61    63     1     0     0
SMALL
abcg2


@<TRIPOS>ATOM
      1 C1         -14.2820   -16.8080    -2.5070 c3         1 OT0      -0.086600
      2 C2         -14.3310   -17.8520    -1.4090 c6         1 OT0       0.170800
      3 C3         -15.7620   -18.2370    -1.0530 c6         1 OT0      -0.113900
      4 C4         -15.8310   -19.2760     0.0860 c6         1 OT0       0.197200
      5 C5         -17.7580   -20.2440     1.4240 ca         1 OT0       0.342000
      6 C6         -19.1210   -20.1150     1.7550 ca         1 OT0      -0.190000
      7 C7         -19.7530   -21.0330     2.5730 ca         1 OT0      -0.056000
      8 C11        -15.3290   -20.6580    -0.4360 c          1 OT0       0.598100
      9 C12        -17.3630   -21.0180    -1.9180 c6         1 OT0       0.100000
     10 N1         -17.2130   -19.3490     0.5370 nu         1 OT0      -0.993200
     11 C8         -19.0330   -22.1050     3.0880 ca         1 OT0       0.063000
     12 CL1        -19.8370   -23.2840     4.1130 cl         1 OT0      -0.221000
     13 C9         -17.6850   -22.2440     2.7990 ca         1 OT0      -0.056000
     14 C10        -17.0480   -21.3200     1.9810 ca         1 OT0      -0.190000
     15 O1         -14.2550   -21.0950    -0.0130 o          1 OT0      -0.618100
     16 N2         -16.0530   -21.3470    -1.3470 n          1 OT0      -0.400800
     17 C13        -18.4100   -22.0490    -1.5020 c6         1 OT0      -0.094900
     18 C14        -17.9810   -23.4730    -1.8590 c6         1 OT0      -0.087700
     19 C15        -18.9630   -24.5160    -1.3220 c3         1 OT0       0.108000
     20 N3         -20.3120   -24.3590    -1.8460 ns         1 OT0      -0.498900
     21 C16        -20.6870   -24.8310    -3.0450 c          1 OT0       0.589100
     22 O2         -19.9670   -25.5160    -3.7700 o          1 OT0      -0.585100
     23 C17        -22.0950   -24.4550    -3.4740 c3         1 OT0       0.039600
     24 C18        -16.5720   -23.7490    -1.3300 c6         1 OT0      -0.094900
     25 C19        -15.5890   -22.6700    -1.7750 c6         1 OT0       0.100000
     26 C20        -14.9250   -18.7660     1.2310 c6         1 OT0      -0.113900
     27 C21        -13.5490   -18.2650     0.7980 c6         1 OT0       0.170800
     28 C22        -12.8170   -17.5800     1.9350 c3         1 OT0      -0.086600
     29 O3         -13.6690   -17.3110    -0.2660 os         1 OT0      -0.467000
     30 H1         -13.2490   -16.5420    -2.7330 hc         1 OT0       0.045367
     31 H2         -14.7480   -17.1930    -3.4150 hc         1 OT0       0.045367
     32 H3         -14.8160   -15.9060    -2.1980 hc         1 OT0       0.045367
     33 H4         -13.7840   -18.7460    -1.7370 h1         1 OT0       0.055200
     34 H5         -16.2800   -17.3340    -0.7150 hc         1 OT0       0.059200
     35 H6         -16.2710   -18.5960    -1.9450 hc         1 OT0       0.059200
     36 H7         -19.6880   -19.2920     1.3370 ha         1 OT0       0.124000
     37 H8         -20.8040   -20.9200     2.8040 ha         1 OT0       0.127000
     38 H10        -17.6770   -20.0300    -1.6160 h1         1 OT0       0.059200
     39 H11        -17.7950   -18.5640     0.2910 hn         1 OT0       0.487000
     40 H12        -17.1230   -23.0740     3.2070 ha         1 OT0       0.127000
     41 H13        -15.9980   -21.4590     1.7740 ha         1 OT0       0.124000
     42 H14        -18.5710   -21.9780    -0.4230 hc         1 OT0       0.052950
     43 H15        -19.3550   -21.8010    -1.9900 hc         1 OT0       0.052950
     44 H16        -17.9570   -23.5610    -2.9510 hc         1 OT0       0.066700
     45 H17        -19.0240   -24.4420    -0.2350 h1         1 OT0       0.062200
     46 H18        -18.6150   -25.5170    -1.5760 h1         1 OT0       0.062200
     47 H19        -20.9530   -23.7700    -1.3380 hn         1 OT0       0.316500
     48 H20        -22.5130   -25.2390    -4.0970 h1         1 OT0       0.085700
     49 H21        -22.7520   -24.2280    -2.6410 h1         1 OT0       0.085700
     50 H23        -16.5900   -23.7820    -0.2360 hc         1 OT0       0.052950
     51 H24        -16.2200   -24.7220    -1.6810 hc         1 OT0       0.052950
     52 H25        -14.6020   -22.8400    -1.3590 h1         1 OT0       0.059200
     53 H26        -15.5090   -22.6620    -2.8660 h1         1 OT0       0.059200
     54 H27        -15.4620   -17.9310     1.6890 hc         1 OT0       0.059200
     55 H28        -14.8020   -19.5360     1.9910 hc         1 OT0       0.059200
     56 H29        -12.9580   -19.1080     0.4310 h1         1 OT0       0.055200
     57 H30        -12.6700   -18.2770     2.7620 hc         1 OT0       0.045367
     58 H31        -11.8390   -17.2260     1.6040 hc         1 OT0       0.045367
     59 H32        -13.3930   -16.7270     2.3000 hc         1 OT0       0.045367
     60 CL2        -22.0120   -22.9600    -4.4970 cl         1 OT0      -0.261000
     61 H9         -17.2520   -21.0220    -3.0070 h1         1 OT0       0.059200
@<TRIPOS>BOND
     1     1     2 1   
     2     1    30 1   
     3     1    31 1   
     4     1    32 1   
     5     2     3 1   
     6     2    29 1   
     7     2    33 1   
     8     3     4 1   
     9     3    34 1   
    10     3    35 1   
    11     4     8 1   
    12     4    10 1   
    13     4    26 1   
    14     5     6 ar  
    15     5    10 1   
    16     5    14 ar  
    17     6     7 ar  
    18     6    36 1   
    19     7    11 ar  
    20     7    37 1   
    21     8    15 2   
    22     8    16 1   
    23     9    16 1   
    24     9    17 1   
    25     9    38 1   
    26     9    61 1   
    27    10    39 1   
    28    11    12 1   
    29    11    13 ar  
    30    13    14 ar  
    31    13    40 1   
    32    14    41 1   
    33    16    25 1   
    34    17    18 1   
    35    17    42 1   
    36    17    43 1   
    37    18    19 1   
    38    18    24 1   
    39    18    44 1   
    40    19    20 1   
    41    19    45 1   
    42    19    46 1   
    43    20    21 1   
    44    20    47 1   
    45    21    22 2   
    46    21    23 1   
    47    23    48 1   
    48    23    49 1   
    49    23    60 1   
    50    24    25 1   
    51    24    50 1   
    52    24    51 1   
    53    25    52 1   
    54    25    53 1   
    55    26    27 1   
    56    26    54 1   
    57    26    55 1   
    58    27    28 1   
    59    27    29 1   
    60    27    56 1   
    61    28    57 1   
    62    28    58 1   
    63    28    59 1   
@<TRIPOS>SUBSTRUCTURE
     1 OT0         1 TEMP              0 ****  ****    0 ROOT
