@<TRIPOS>MOLECULE
OT0
   61    63     1     0     0
SMALL
No Charge or Current Charge


@<TRIPOS>ATOM
      1 C1         -14.6260   -17.1420    -2.6980 c3         1 OT0      -0.086600
      2 C2         -14.6010   -18.1250    -1.5030 c6         1 OT0       0.170800
      3 C3         -15.9450   -18.1460    -0.7280 c6         1 OT0      -0.113900
      4 C4         -15.8580   -19.1040     0.5090 c6         1 OT0       0.197200
      5 C5         -17.9460   -19.8980     1.7620 ca         1 OT0       0.342000
      6 C6         -19.2880   -19.9230     1.3530 ca         1 OT0      -0.190000
      7 C7         -20.1440   -20.9500     1.7910 ca         1 OT0      -0.056000
      8 C11        -15.5970   -20.6370     0.0850 c          1 OT0       0.598100
      9 C12        -17.4950   -20.9520    -1.5590 c6         1 OT0       0.100000
     10 N1         -17.1160   -18.8800     1.2990 nu         1 OT0      -0.993200
     11 C8         -19.6560   -21.9470     2.6520 ca         1 OT0       0.063000
     12 Cl1        -20.7190   -23.2400     3.1910 cl         1 OT0      -0.221000
     13 C9         -18.3210   -21.9090     3.0870 ca         1 OT0      -0.056000
     14 C10        -17.4700   -20.8780     2.6470 ca         1 OT0      -0.190000
     15 O1         -15.0170   -21.4120     0.8430 o          1 OT0      -0.618100
     16 N2         -16.0750   -21.1340    -1.1530 n          1 OT0      -0.400800
     17 C13        -18.3430   -22.2100    -1.2590 c6         1 OT0      -0.094900
     18 C14        -17.7370   -23.4790    -1.9160 c6         1 OT0      -0.087700
     19 C15        -18.5470   -24.7670    -1.5840 c3         1 OT0       0.108000
     20 N3         -19.9630   -24.6770    -1.9530 ns         1 OT0      -0.498900
     21 C16        -20.4480   -24.7430    -3.2420 c          1 OT0       0.589100
     22 O2         -19.7210   -24.9440    -4.2060 o          1 OT0      -0.585100
     23 C17        -21.9630   -24.5390    -3.3730 c3         1 OT0       0.039600
     24 C18        -16.2550   -23.6240    -1.4850 c6         1 OT0      -0.094900
     25 C19        -15.4550   -22.3320    -1.7780 c6         1 OT0       0.100000
     26 C20        -14.6640   -18.5780     1.3650 c6         1 OT0      -0.113900
     27 C21        -13.3560   -18.5330     0.5320 c6         1 OT0       0.170800
     28 C22        -12.1690   -17.9440     1.3300 c3         1 OT0      -0.086600
     29 O3         -13.5490   -17.6880    -0.6210 os         1 OT0      -0.467000
     30 H1         -13.6620   -17.1370    -3.2210 hc         1 OT0       0.045367
     31 H2         -15.3950   -17.4280    -3.4240 hc         1 OT0       0.045367
     32 H3         -14.8380   -16.1180    -2.3690 hc         1 OT0       0.045367
     33 H4         -14.3600   -19.1280    -1.8850 h1         1 OT0       0.055200
     34 H5         -16.1650   -17.1240    -0.3900 hc         1 OT0       0.059200
     35 H6         -16.7600   -18.4050    -1.4100 hc         1 OT0       0.059200
     36 H7         -19.6670   -19.1580     0.6810 ha         1 OT0       0.124000
     37 H8         -21.1800   -20.9770     1.4610 ha         1 OT0       0.127000
     38 H10        -17.9500   -20.1050    -1.0340 h1         1 OT0       0.059200
     39 H11        -17.6340   -18.0360     1.0520 hn         1 OT0       0.487000
     40 H12        -17.9470   -22.6740     3.7640 ha         1 OT0       0.127000
     41 H13        -16.4420   -20.8430     2.9930 ha         1 OT0       0.124000
     42 H14        -18.4060   -22.3540    -0.1720 hc         1 OT0       0.052950
     43 H15        -19.3690   -22.0430    -1.6130 hc         1 OT0       0.052950
     44 H16        -17.7700   -23.3570    -3.0080 hc         1 OT0       0.066700
     45 H17        -18.4820   -24.9600    -0.5040 h1         1 OT0       0.062200
     46 H18        -18.0950   -25.6220    -2.1050 h1         1 OT0       0.062200
     47 H19        -20.6400   -24.4940    -1.2210 hn         1 OT0       0.316500
     48 H20        -22.2620   -24.7320    -4.4100 h1         1 OT0       0.085700
     49 H21        -22.4760   -25.2440    -2.7080 h1         1 OT0       0.085700
     50 H23        -16.1980   -23.8490    -0.4110 hc         1 OT0       0.052950
     51 H24        -15.7890   -24.4710    -2.0080 hc         1 OT0       0.052950
     52 H25        -14.4200   -22.4500    -1.4250 h1         1 OT0       0.059200
     53 H26        -15.4040   -22.1760    -2.8650 h1         1 OT0       0.059200
     54 H27        -14.8860   -17.5710     1.7430 hc         1 OT0       0.059200
     55 H28        -14.5230   -19.2110     2.2510 hc         1 OT0       0.059200
     56 H29        -13.0800   -19.5430     0.1950 h1         1 OT0       0.055200
     57 H30        -11.9530   -18.5520     2.2160 hc         1 OT0       0.045367
     58 H31        -11.2610   -17.9150     0.7180 hc         1 OT0       0.045367
     59 H32        -12.3830   -16.9230     1.6680 hc         1 OT0       0.045367
     60 Cl2        -22.4970   -22.8470    -2.9300 cl         1 OT0      -0.261000
     61 H9         -17.5340   -20.7280    -2.6350 h1         1 OT0       0.059200
@<TRIPOS>BOND
     1     1     2 1   
     2     1    30 1   
     3     1    31 1   
     4     1    32 1   
     5     2     3 1   
     6     2    29 1   
     7     2    33 1   
     8     3     4 1   
     9     3    34 1   
    10     3    35 1   
    11     4     8 1   
    12     4    10 1   
    13     4    26 1   
    14     5     6 ar  
    15     5    10 1   
    16     5    14 ar  
    17     6     7 ar  
    18     6    36 1   
    19     7    11 ar  
    20     7    37 1   
    21     8    15 2   
    22     8    16 1   
    23     9    16 1   
    24     9    17 1   
    25     9    38 1   
    26     9    61 1   
    27    10    39 1   
    28    11    12 1   
    29    11    13 ar  
    30    13    14 ar  
    31    13    40 1   
    32    14    41 1   
    33    16    25 1   
    34    17    18 1   
    35    17    42 1   
    36    17    43 1   
    37    18    19 1   
    38    18    24 1   
    39    18    44 1   
    40    19    20 1   
    41    19    45 1   
    42    19    46 1   
    43    20    21 1   
    44    20    47 1   
    45    21    22 2   
    46    21    23 1   
    47    23    48 1   
    48    23    49 1   
    49    23    60 1   
    50    24    25 1   
    51    24    50 1   
    52    24    51 1   
    53    25    52 1   
    54    25    53 1   
    55    26    27 1   
    56    26    54 1   
    57    26    55 1   
    58    27    28 1   
    59    27    29 1   
    60    27    56 1   
    61    28    57 1   
    62    28    58 1   
    63    28    59 1   
@<TRIPOS>SUBSTRUCTURE
     1 OT0         1 TEMP              0 ****  ****    0 ROOT
