@<TRIPOS>MOLECULE
OT2
   48    51     1     0     0
SMALL
No Charge or Current Charge


@<TRIPOS>ATOM
      1 C05        -37.9140    -9.2540    11.6870 ca         1 OT2      -0.259500
      2 C06        -36.8370    -8.5280    11.1570 ca         1 OT2       0.028000
      3 C07        -35.5750    -9.1320    11.0200 ca         1 OT2      -0.152800
      4 C08        -34.4440    -8.3180    10.5230 ce         1 OT2      -0.017200
      5 C09        -33.1590    -8.7320    10.5240 cf         1 OT2      -0.378200
      6 C10        -32.7990   -10.0980    10.9620 c          1 OT2       0.609300
      7 C12        -33.9600   -11.1310    11.1790 c6         1 OT2       0.097800
      8 C15        -34.7790   -10.8690     8.1180 ca         1 OT2       0.298000
      9 C16        -36.1450   -11.0250     8.3800 ca         1 OT2      -0.186000
     10 C17        -37.0940   -10.1970     7.7730 ca         1 OT2       0.038000
     11 C18        -36.7040    -9.1920     6.8650 ca         1 OT2      -0.280500
     12 C19        -35.3160    -9.0170     6.5840 ca         1 OT2       0.073000
     13 C20        -34.8520    -8.0170     5.6900 ca         1 OT2      -0.076000
     14 C21        -33.4840    -7.8550     5.4240 ca         1 OT2      -0.145000
     15 C22        -32.5470    -8.6840     6.0440 ca         1 OT2      -0.165000
     16 C23        -32.9760    -9.6790     6.9310 ca         1 OT2      -0.097000
     17 C24        -34.3550    -9.8630     7.2110 ca         1 OT2      -0.090000
     18 C29        -35.3640   -10.4830    11.3990 ca         1 OT2       0.028700
     19 C30        -36.4600   -11.2160    11.9570 ca         1 OT2      -0.278500
     20 C31        -37.7190   -10.5840    12.0860 ca         1 OT2       0.087000
     21 N13        -33.9840   -12.2020    10.1120 n7         1 OT2      -0.602200
     22 N14        -33.8520   -11.7470     8.7260 nu         1 OT2      -0.751000
     23 O01        -39.4370    -7.1870    11.2620 o          1 OT2      -0.708533
     24 O03        -40.4430    -9.4740    11.2500 o          1 OT2      -0.708533
     25 O04        -39.6740    -8.4690    13.3880 o          1 OT2      -0.708533
     26 O11        -31.6170   -10.3970    11.1230 o          1 OT2      -0.591100
     27 O26        -39.2720    -8.7140     6.6310 o          1 OT2      -0.712867
     28 O27        -37.8030    -8.4210     4.6430 o          1 OT2      -0.712867
     29 O28        -37.6730    -6.8070     6.5320 o          1 OT2      -0.712867
     30 O33        -35.9970   -13.6770    11.2850 o          1 OT2      -0.711533
     31 O34        -35.2160   -12.8860    13.5090 o          1 OT2      -0.711533
     32 O35        -37.6440   -13.2590    13.1040 o          1 OT2      -0.711533
     33 S02        -39.5760    -8.4940    11.9210 s6         1 OT2       1.290100
     34 S25        -38.0320    -8.1570     6.0720 s6         1 OT2       1.290100
     35 S32        -36.3160   -12.9790    12.5390 s6         1 OT2       1.293100
     36 H061       -36.9670    -7.4890    10.8650 ha         1 OT2       0.119000
     37 H081       -34.6790    -7.3040    10.1940 ha         1 OT2       0.158000
     38 H091       -32.3580    -8.0640    10.2130 ha         1 OT2       0.162000
     39 H1         -33.6750   -11.6010    12.1280 h1         1 OT2       0.118700
     40 H161       -36.4800   -11.8020     9.0590 ha         1 OT2       0.148000
     41 H171       -38.1420   -10.3590     8.0160 ha         1 OT2       0.149000
     42 H201       -35.5340    -7.3430     5.1850 ha         1 OT2       0.139000
     43 H211       -33.1530    -7.0810     4.7360 ha         1 OT2       0.078000
     44 H221       -31.4870    -8.5560     5.8420 ha         1 OT2       0.072000
     45 H231       -32.2160   -10.2970     7.4020 ha         1 OT2       0.089000
     46 H311       -38.5690   -11.1190    12.5050 ha         1 OT2       0.153000
     47 H2         -34.7360   -12.9070    10.3070 hn         1 OT2       0.482000
     48 H141       -32.9400   -11.8300     8.2590 hn         1 OT2       0.470000
@<TRIPOS>BOND
     1     1     2 ar  
     2     1    20 ar  
     3     1    33 1   
     4     2     3 ar  
     5     2    36 1   
     6     3     4 1   
     7     3    18 ar  
     8     4     5 2   
     9     4    37 1   
    10     5     6 1   
    11     5    38 1   
    12     6     7 1   
    13     6    26 2   
    14     7    18 1   
    15     7    21 1   
    16     7    39 1   
    17     8     9 ar  
    18     8    17 ar  
    19     8    22 1   
    20     9    10 ar  
    21     9    40 1   
    22    10    11 ar  
    23    10    41 1   
    24    11    12 ar  
    25    11    34 1   
    26    12    13 ar  
    27    12    17 ar  
    28    13    14 ar  
    29    13    42 1   
    30    14    15 ar  
    31    14    43 1   
    32    15    16 ar  
    33    15    44 1   
    34    16    17 ar  
    35    16    45 1   
    36    18    19 ar  
    37    19    20 ar  
    38    19    35 1   
    39    20    46 1   
    40    21    22 1   
    41    21    47 1   
    42    22    48 1   
    43    23    33 1   
    44    24    33 1   
    45    25    33 1   
    46    27    34 1   
    47    28    34 1   
    48    29    34 1   
    49    30    35 1   
    50    31    35 1   
    51    32    35 1   
@<TRIPOS>SUBSTRUCTURE
     1 OT2         1 TEMP              0 ****  ****    0 ROOT
