@<TRIPOS>MOLECULE
OT2
   48    51     1     0     0
SMALL
abcg2


@<TRIPOS>ATOM
      1 C05        -37.4590    -8.9470    11.9060 ca         1 OT2      -0.259500
      2 C06        -36.2150    -8.3680    11.7370 ca         1 OT2       0.028000
      3 C07        -35.0780    -9.1750    11.6170 ca         1 OT2      -0.152800
      4 C08        -33.7640    -8.5550    11.5680 ce         1 OT2      -0.017200
      5 C09        -32.6140    -9.2510    11.6180 cf         1 OT2      -0.378200
      6 C10        -32.6320   -10.7040    11.6400 c          1 OT2       0.609300
      7 C12        -33.9620   -11.4050    11.3500 c6         1 OT2       0.097800
      8 C15        -34.8610   -10.4320     8.2110 ca         1 OT2       0.298000
      9 C16        -36.1520   -10.8840     8.3990 ca         1 OT2      -0.186000
     10 C17        -37.1840   -10.4850     7.5360 ca         1 OT2       0.038000
     11 C18        -36.9630    -9.6450     6.4740 ca         1 OT2      -0.280500
     12 C19        -35.6520    -9.1180     6.2580 ca         1 OT2       0.073000
     13 C20        -35.3460    -8.2230     5.2020 ca         1 OT2      -0.076000
     14 C21        -34.0820    -7.7160     5.0340 ca         1 OT2      -0.145000
     15 C22        -33.0530    -8.0690     5.9240 ca         1 OT2      -0.165000
     16 C23        -33.3110    -8.9380     6.9560 ca         1 OT2      -0.097000
     17 C24        -34.5960    -9.4980     7.1460 ca         1 OT2      -0.090000
     18 C29        -35.1920   -10.5730    11.6270 ca         1 OT2       0.028700
     19 C30        -36.4560   -11.1390    11.8380 ca         1 OT2      -0.278500
     20 C31        -37.5770   -10.3320    11.9750 ca         1 OT2       0.087000
     21 N13        -33.8820   -11.8720     9.9390 n7         1 OT2      -0.602200
     22 N14        -33.8000   -10.8270     9.0040 nu         1 OT2      -0.751000
     23 O01        -38.5110    -6.5640    11.8150 o          1 OT2      -0.708533
     24 O03        -39.8960    -8.4700    11.1410 o          1 OT2      -0.708533
     25 O04        -39.3400    -8.1350    13.4990 o          1 OT2      -0.708533
     26 O11        -31.6230   -11.3730    11.8180 o          1 OT2      -0.591100
     27 O26        -39.4830    -9.9930     5.8980 o          1 OT2      -0.712867
     28 O27        -37.9080    -9.7500     4.0470 o          1 OT2      -0.712867
     29 O28        -38.5000    -7.8100     5.4100 o          1 OT2      -0.712867
     30 O33        -36.2410   -13.4590    10.6540 o          1 OT2      -0.711533
     31 O34        -35.8350   -13.3600    13.0610 o          1 OT2      -0.711533
     32 O35        -38.1100   -13.1330    12.1920 o          1 OT2      -0.711533
     33 S02        -38.9280    -7.9380    12.1040 s6         1 OT2       1.290100
     34 S25        -38.3210    -9.2680     5.3730 s6         1 OT2       1.290100
     35 S32        -36.6850   -12.9250    11.9500 s6         1 OT2       1.293100
     36 H061       -36.1170    -7.2920    11.7130 ha         1 OT2       0.119000
     37 H081       -33.7370    -7.4710    11.5490 ha         1 OT2       0.158000
     38 H091       -31.6500    -8.7610    11.6560 ha         1 OT2       0.162000
     39 H1         -33.9810   -12.3140    11.9480 h1         1 OT2       0.118700
     40 H161       -36.3850   -11.5750     9.1920 ha         1 OT2       0.148000
     41 H171       -38.1790   -10.8710     7.7010 ha         1 OT2       0.149000
     42 H201       -36.1320    -7.9320     4.5230 ha         1 OT2       0.139000
     43 H211       -33.8790    -7.0340     4.2180 ha         1 OT2       0.078000
     44 H221       -32.0610    -7.6520     5.8030 ha         1 OT2       0.072000
     45 H231       -32.5100    -9.1720     7.6430 ha         1 OT2       0.089000
     46 H311       -38.5410   -10.7920    12.1350 ha         1 OT2       0.153000
     47 H2         -34.6730   -12.4830     9.7560 hn         1 OT2       0.482000
     48 H141       -32.8970   -10.8140     8.5590 hn         1 OT2       0.470000
@<TRIPOS>BOND
     1     1     2 ar  
     2     1    20 ar  
     3     1    33 1   
     4     2     3 ar  
     5     2    36 1   
     6     3     4 1   
     7     3    18 ar  
     8     4     5 2   
     9     4    37 1   
    10     5     6 1   
    11     5    38 1   
    12     6     7 1   
    13     6    26 2   
    14     7    18 1   
    15     7    21 1   
    16     7    39 1   
    17     8     9 ar  
    18     8    17 ar  
    19     8    22 1   
    20     9    10 ar  
    21     9    40 1   
    22    10    11 ar  
    23    10    41 1   
    24    11    12 ar  
    25    11    34 1   
    26    12    13 ar  
    27    12    17 ar  
    28    13    14 ar  
    29    13    42 1   
    30    14    15 ar  
    31    14    43 1   
    32    15    16 ar  
    33    15    44 1   
    34    16    17 ar  
    35    16    45 1   
    36    18    19 ar  
    37    19    20 ar  
    38    19    35 1   
    39    20    46 1   
    40    21    22 1   
    41    21    47 1   
    42    22    48 1   
    43    23    33 1   
    44    24    33 1   
    45    25    33 1   
    46    27    34 1   
    47    28    34 1   
    48    29    34 1   
    49    30    35 1   
    50    31    35 1   
    51    32    35 1   
@<TRIPOS>SUBSTRUCTURE
     1 OT2         1 TEMP              0 ****  ****    0 ROOT
