@<TRIPOS>MOLECULE
OT4
   40    42     1     0     0
SMALL
No Charge or Current Charge


@<TRIPOS>ATOM
      1 N29          7.8040     1.0480    28.9430 n8         1 OT4      -0.993200
      2 C28          6.4900     1.5410    28.4800 c3         1 OT4       0.153800
      3 C27          6.4300     1.7340    26.9460 c3         1 OT4      -0.030100
      4 C23          7.3530     2.8350    26.4270 ca         1 OT4      -0.066300
      5 C22          8.5040     2.5120    25.6800 ca         1 OT4      -0.073000
      6 C24          7.0490     4.1860    26.6760 ca         1 OT4      -0.105000
      7 C25          7.8870     5.2000    26.1880 ca         1 OT4      -0.114000
      8 C26          9.0330     4.8710    25.4460 ca         1 OT4      -0.099000
      9 C21          9.3660     3.5200    25.1760 cp         1 OT4      -0.038000
     10 C08         10.5880     3.1690    24.3840 cp         1 OT4      -0.010000
     11 C09         11.3500     2.0140    24.6840 ca         1 OT4      -0.095000
     12 C07         11.0220     3.9800    23.3110 ca         1 OT4      -0.121000
     13 C06         12.1650     3.6530    22.5670 ca         1 OT4      -0.079000
     14 C05         12.9140     2.4970    22.8790 ca         1 OT4      -0.123000
     15 C04         14.0720     2.1450    22.1420 ca         1 OT4       0.007700
     16 C11         14.5920     2.9730    20.9710 c3         1 OT4      -0.055800
     17 C03         14.7530     0.9800    22.5250 ca         1 OT4      -0.215000
     18 C02         14.2600     0.2430    23.5990 ca         1 OT4       0.618900
     19 N02         14.8170    -0.8830    24.0460 nv         1 OT4      -1.070900
     20 N01         13.1810     0.5450    24.3010 nb         1 OT4      -0.760000
     21 C10         12.5010     1.6630    23.9550 ca         1 OT4       0.324000
     22 H1           7.7560     0.8690    29.9540 hn         1 OT4       0.392000
     23 H2           7.9740     0.1190    28.5410 hn         1 OT4       0.392000
     24 H4           6.2720     2.4940    28.9810 h1         1 OT4       0.027700
     25 H5           5.7240     0.8130    28.7810 h1         1 OT4       0.027700
     26 H6           5.3950     1.9750    26.6730 hc         1 OT4       0.044700
     27 H7           6.6510     0.7780    26.4550 hc         1 OT4       0.044700
     28 H8           8.7260     1.4680    25.4780 ha         1 OT4       0.115000
     29 H9           6.1610     4.4500    27.2470 ha         1 OT4       0.107000
     30 H10          7.6490     6.2430    26.3860 ha         1 OT4       0.110000
     31 H11          9.6750     5.6720    25.0880 ha         1 OT4       0.112000
     32 H12         11.0530     1.3770    25.5120 ha         1 OT4       0.135000
     33 H13         10.4570     4.8690    23.0400 ha         1 OT4       0.114000
     34 H14         12.4540     4.3070    21.7480 ha         1 OT4       0.109000
     35 H15         13.8440     3.0410    20.1730 hc         1 OT4       0.048033
     36 H16         14.8440     3.9920    21.2900 hc         1 OT4       0.048033
     37 H17         15.4980     2.5350    20.5350 hc         1 OT4       0.048033
     38 H18         15.6480     0.6540    22.0030 ha         1 OT4       0.117000
     39 H19         14.2210    -1.4250    24.6600 hn         1 OT4       0.477000
     40 H20         15.3940    -1.4080    23.3980 hn         1 OT4       0.477000
@<TRIPOS>BOND
     1     1     2 1   
     2     1    22 1   
     3     1    23 1   
     4     2     3 1   
     5     2    24 1   
     6     2    25 1   
     7     3     4 1   
     8     3    26 1   
     9     3    27 1   
    10     4     5 ar  
    11     4     6 ar  
    12     5     9 ar  
    13     5    28 1   
    14     6     7 ar  
    15     6    29 1   
    16     7     8 ar  
    17     7    30 1   
    18     8     9 ar  
    19     8    31 1   
    20     9    10 1   
    21    10    11 ar  
    22    10    12 ar  
    23    11    21 ar  
    24    11    32 1   
    25    12    13 ar  
    26    12    33 1   
    27    13    14 ar  
    28    13    34 1   
    29    14    15 ar  
    30    14    21 ar  
    31    15    16 1   
    32    15    17 ar  
    33    16    35 1   
    34    16    36 1   
    35    16    37 1   
    36    17    18 ar  
    37    17    38 1   
    38    18    19 1   
    39    18    20 ar  
    40    19    39 1   
    41    19    40 1   
    42    20    21 ar  
@<TRIPOS>SUBSTRUCTURE
     1 OT4         1 TEMP              0 ****  ****    0 ROOT
