@<TRIPOS>MOLECULE
OT4
   40    42     1     0     0
SMALL
bcc


@<TRIPOS>ATOM
      1 N29          8.1340     0.8810    28.4190 n8         1 OT4      -0.882800
      2 C28          6.7950     1.4400    28.3830 c3         1 OT4       0.153800
      3 C27          6.4050     1.8640    26.9680 c3         1 OT4      -0.030100
      4 C23          7.3030     2.9290    26.4060 ca         1 OT4      -0.066300
      5 C22          8.4410     2.5920    25.6820 ca         1 OT4      -0.091000
      6 C24          7.0280     4.2770    26.6230 ca         1 OT4      -0.123000
      7 C25          7.8720     5.2580    26.1230 ca         1 OT4      -0.132000
      8 C26          9.0030     4.9080    25.4020 ca         1 OT4      -0.117000
      9 C21          9.3030     3.5640    25.1720 cp         1 OT4      -0.038000
     10 C08         10.5090     3.1820    24.4100 cp         1 OT4      -0.010000
     11 C09         11.2340     2.0570    24.7440 ca         1 OT4      -0.178300
     12 C07         10.9440     3.9740    23.3240 ca         1 OT4      -0.139000
     13 C06         12.0660     3.6310    22.6150 ca         1 OT4      -0.097000
     14 C05         12.8150     2.4860    22.9470 ca         1 OT4      -0.188300
     15 C04         13.9930     2.0860    22.2420 ca         1 OT4       0.007700
     16 C11         14.5020     2.8840    21.0840 c3         1 OT4      -0.055800
     17 C03         14.6370     0.9630    22.6620 ca         1 OT4      -0.298300
     18 C02         14.1320     0.2190    23.7720 ca         1 OT4       0.684200
     19 N02         14.8190    -0.8710    24.1970 nv         1 OT4      -0.960500
     20 N01         13.0490     0.5650    24.4260 nb         1 OT4      -0.760000
     21 C10         12.3910     1.6810    24.0310 ca         1 OT4       0.454600
     22 H1           8.3590     0.6040    29.3660 hn         1 OT4       0.336800
     23 H2           8.1620     0.0320    27.8680 hn         1 OT4       0.336800
     24 H4           6.7690     2.3170    29.0350 h1         1 OT4       0.027700
     25 H5           6.0200     0.7550    28.7550 h1         1 OT4       0.027700
     26 H6           5.3730     2.2210    26.9900 hc         1 OT4       0.044700
     27 H7           6.4140     0.9850    26.3170 hc         1 OT4       0.044700
     28 H8           8.6460     1.5460    25.4870 ha         1 OT4       0.133000
     29 H9           6.1410     4.5620    27.1770 ha         1 OT4       0.125000
     30 H10          7.6480     6.3030    26.2970 ha         1 OT4       0.128000
     31 H11          9.6620     5.6840    25.0310 ha         1 OT4       0.130000
     32 H12         10.9400     1.4430    25.5870 ha         1 OT4       0.153000
     33 H13         10.3780     4.8490    23.0330 ha         1 OT4       0.132000
     34 H14         12.3750     4.2500    21.7830 ha         1 OT4       0.127000
     35 H15         13.7570     2.9500    20.2900 hc         1 OT4       0.048033
     36 H16         14.7380     3.9070    21.3840 hc         1 OT4       0.048033
     37 H17         15.4040     2.4410    20.6650 hc         1 OT4       0.048033
     38 H18         15.5370     0.6260    22.1620 ha         1 OT4       0.135000
     39 H19         14.3500    -1.4970    24.8300 hn         1 OT4       0.421800
     40 H20         15.4810    -1.3020    23.5770 hn         1 OT4       0.421800
@<TRIPOS>BOND
     1     1     2 1   
     2     1    22 1   
     3     1    23 1   
     4     2     3 1   
     5     2    24 1   
     6     2    25 1   
     7     3     4 1   
     8     3    26 1   
     9     3    27 1   
    10     4     5 ar  
    11     4     6 ar  
    12     5     9 ar  
    13     5    28 1   
    14     6     7 ar  
    15     6    29 1   
    16     7     8 ar  
    17     7    30 1   
    18     8     9 ar  
    19     8    31 1   
    20     9    10 1   
    21    10    11 ar  
    22    10    12 ar  
    23    11    21 ar  
    24    11    32 1   
    25    12    13 ar  
    26    12    33 1   
    27    13    14 ar  
    28    13    34 1   
    29    14    15 ar  
    30    14    21 ar  
    31    15    16 1   
    32    15    17 ar  
    33    16    35 1   
    34    16    36 1   
    35    16    37 1   
    36    17    18 ar  
    37    17    38 1   
    38    18    19 1   
    39    18    20 ar  
    40    19    39 1   
    41    19    40 1   
    42    20    21 ar  
@<TRIPOS>SUBSTRUCTURE
     1 OT4         1 TEMP              0 ****  ****    0 ROOT
