@<TRIPOS>MOLECULE
OT5
   61    64     1     0     0
SMALL
abcg2


@<TRIPOS>ATOM
      1 C01         -3.4830    -5.4900     0.1720 c3         1 OT5       0.150100
      2 N02         -4.2850    -4.6830    -0.7210 n3         1 OT5      -0.714600
      3 C03         -3.4930    -3.7110    -1.4520 c3         1 OT5       0.168800
      4 C04         -2.9040    -2.6020    -0.5850 c6         1 OT5      -0.062700
      5 C05         -3.9770    -1.8590     0.2020 c6         1 OT5      -0.069900
      6 C06         -3.3950    -0.6990     0.9970 c6         1 OT5      -0.078900
      7 C07         -2.6220     0.2750     0.1100 c6         1 OT5       0.221500
      8 C08         -1.5290    -0.4650    -0.6450 c6         1 OT5      -0.078900
      9 C09         -2.1250    -1.6170    -1.4520 c6         1 OT5      -0.069900
     10 N10         -2.2080     1.3970     0.9860 nu         1 OT5      -0.900200
     11 C11         -1.7110     2.5790     0.5030 ca         1 OT5       0.413000
     12 C12         -2.4310     3.7840     0.5430 ca         1 OT5      -0.329600
     13 C13         -1.8400     4.9430    -0.0170 ca         1 OT5       0.406900
     14 N14         -0.6610     5.0090    -0.5660 nb         1 OT5      -0.680000
     15 C15          0.0820     3.8800    -0.5490 ca         1 OT5       0.254000
     16 C16         -0.3710     2.6590    -0.0080 ca         1 OT5       0.206000
     17 N17          0.4350     1.5950     0.1110 nb         1 OT5      -0.641000
     18 C18          1.6630     1.6420    -0.3410 cp         1 OT5       0.409500
     19 C19          2.1840     2.8030    -0.9650 ca         1 OT5      -0.133000
     20 C20          1.3980     3.9120    -1.0570 ca         1 OT5      -0.062000
     21 C21          2.4860     0.4320    -0.1470 cp         1 OT5      -0.172500
     22 C22          2.0940    -0.5250     0.7890 ca         1 OT5      -0.034500
     23 C23          2.8400    -1.6690     0.9770 ca         1 OT5       0.040000
     24 CL4          2.3470    -2.8380     2.1460 cl         1 OT5      -0.183000
     25 C25          4.0010    -1.9180     0.2420 ca         1 OT5       0.174100
     26 C26          4.3770    -0.9510    -0.6900 ca         1 OT5       0.040000
     27 C27          3.6420     0.2030    -0.8870 ca         1 OT5      -0.034500
     28 CL8          5.8080    -1.2280    -1.6250 cl         1 OT5      -0.183000
     29 O29          4.6730    -3.0440     0.4680 oh         1 OT5      -0.505100
     30 C30         -3.7940     3.8880     1.1110 c          1 OT5       0.599700
     31 O31         -4.2790     2.9920     1.7840 o          1 OT5      -0.555100
     32 C32         -4.5900     5.1400     0.8530 c3         1 OT5      -0.194100
     33 C33         -5.0400    -5.5220    -1.6250 c3         1 OT5       0.150100
     34 H011        -2.9670    -4.8690     0.9040 h1         1 OT5       0.030033
     35 H012        -4.1240    -6.1790     0.7240 h1         1 OT5       0.030033
     36 H013        -2.7230    -6.0910    -0.3550 h1         1 OT5       0.030033
     37 H031        -2.6770    -4.2000    -2.0170 h1         1 OT5       0.029200
     38 H032        -4.1450    -3.2440    -2.1980 h1         1 OT5       0.029200
     39 H331        -5.6810    -6.2010    -1.0600 h1         1 OT5       0.030033
     40 H332        -5.6820    -4.9100    -2.2600 h1         1 OT5       0.030033
     41 H333        -4.4050    -6.1360    -2.2840 h1         1 OT5       0.030033
     42 H04         -2.1950    -3.0390     0.1290 hc         1 OT5       0.051700
     43 H051        -4.7310    -1.4770    -0.4960 hc         1 OT5       0.045200
     44 H052        -4.4990    -2.5440     0.8720 hc         1 OT5       0.045200
     45 H091        -1.3190    -2.1340    -1.9790 hc         1 OT5       0.045200
     46 H092        -2.7890    -1.2150    -2.2270 hc         1 OT5       0.045200
     47 H061        -4.2040    -0.1700     1.5100 hc         1 OT5       0.054200
     48 H062        -2.7230    -1.0750     1.7760 hc         1 OT5       0.054200
     49 H07         -3.3210     0.6750    -0.6400 h1         1 OT5       0.028700
     50 H081        -1.0030     0.2020    -1.3270 hc         1 OT5       0.054200
     51 H082        -0.7860    -0.8480     0.0580 hc         1 OT5       0.054200
     52 H10         -3.0130     1.6150     1.5620 hn         1 OT5       0.476000
     53 H13         -2.4030     5.8700    -0.0140 h4         1 OT5       0.019100
     54 H20          1.7690     4.8310    -1.4920 ha         1 OT5       0.140000
     55 H19          3.2020     2.8330    -1.3280 ha         1 OT5       0.128000
     56 H22          1.2030    -0.3630     1.3790 ha         1 OT5       0.145500
     57 H27          3.9780     0.9060    -1.6360 ha         1 OT5       0.145500
     58 H29          5.4540    -3.1060    -0.0970 ho         1 OT5       0.484000
     59 H321        -4.6280     5.3830    -0.2080 hc         1 OT5       0.064367
     60 H322        -5.6040     5.0090     1.2230 hc         1 OT5       0.064367
     61 H323        -4.1450     5.9940     1.3670 hc         1 OT5       0.064367
@<TRIPOS>BOND
     1     1     2 1   
     2     1    34 1   
     3     1    35 1   
     4     1    36 1   
     5     2     3 1   
     6     2    33 1   
     7     3     4 1   
     8     3    37 1   
     9     3    38 1   
    10     4     5 1   
    11     4     9 1   
    12     4    42 1   
    13     5     6 1   
    14     5    43 1   
    15     5    44 1   
    16     6     7 1   
    17     6    47 1   
    18     6    48 1   
    19     7     8 1   
    20     7    10 1   
    21     7    49 1   
    22     8     9 1   
    23     8    50 1   
    24     8    51 1   
    25     9    45 1   
    26     9    46 1   
    27    10    11 1   
    28    10    52 1   
    29    11    12 ar  
    30    11    16 ar  
    31    12    13 ar  
    32    12    30 1   
    33    13    14 ar  
    34    13    53 1   
    35    14    15 ar  
    36    15    16 ar  
    37    15    20 ar  
    38    16    17 ar  
    39    17    18 ar  
    40    18    19 ar  
    41    18    21 1   
    42    19    20 ar  
    43    19    55 1   
    44    20    54 1   
    45    21    22 ar  
    46    21    27 ar  
    47    22    23 ar  
    48    22    56 1   
    49    23    24 1   
    50    23    25 ar  
    51    25    26 ar  
    52    25    29 1   
    53    26    27 ar  
    54    26    28 1   
    55    27    57 1   
    56    29    58 1   
    57    30    31 2   
    58    30    32 1   
    59    32    59 1   
    60    32    60 1   
    61    32    61 1   
    62    33    39 1   
    63    33    40 1   
    64    33    41 1   
@<TRIPOS>SUBSTRUCTURE
     1 OT5         1 TEMP              0 ****  ****    0 ROOT
