@<TRIPOS>MOLECULE
OT5
   61    64     1     0     0
SMALL
No Charge or Current Charge


@<TRIPOS>ATOM
      1 C01         -3.8930    -5.4210     0.3180 c3         1 OT5       0.150100
      2 N02         -4.6080    -4.6480    -0.7250 n3         1 OT5      -0.714600
      3 C03         -3.7540    -3.6570    -1.4310 c3         1 OT5       0.168800
      4 C04         -3.1270    -2.5270    -0.5520 c6         1 OT5      -0.062700
      5 C05         -4.2050    -1.7100     0.2160 c6         1 OT5      -0.069900
      6 C06         -3.5620    -0.5920     1.0740 c6         1 OT5      -0.078900
      7 C07         -2.6870     0.3570     0.2160 c6         1 OT5       0.221500
      8 C08         -1.6170    -0.4490    -0.5660 c6         1 OT5      -0.078900
      9 C09         -2.2570    -1.5740    -1.4170 c6         1 OT5      -0.069900
     10 N10         -2.0880     1.3640     1.1060 nu         1 OT5      -0.900200
     11 C11         -1.5400     2.5650     0.6140 ca         1 OT5       0.413000
     12 C12         -2.3710     3.6980     0.5760 ca         1 OT5      -0.329600
     13 C13         -1.8610     4.8860     0.0520 ca         1 OT5       0.406900
     14 N14         -0.5990     5.0090    -0.3970 nb         1 OT5      -0.680000
     15 C15          0.2250     3.9380    -0.3350 ca         1 OT5       0.254000
     16 C16         -0.1810     2.6680     0.1710 ca         1 OT5       0.206000
     17 N17          0.6950     1.6170     0.2410 nb         1 OT5      -0.641000
     18 C18          1.9620     1.7390    -0.2040 cp         1 OT5       0.409500
     19 C19          2.4240     2.9740    -0.7150 ca         1 OT5      -0.133000
     20 C20          1.5520     4.0730    -0.7780 ca         1 OT5      -0.062000
     21 C21          2.8190     0.5020    -0.1230 cp         1 OT5      -0.172500
     22 C22          2.4540    -0.5910     0.7120 ca         1 OT5      -0.034500
     23 C23          3.2390    -1.7540     0.7880 ca         1 OT5       0.040000
     24 Cl4          2.7180    -3.0660     1.8490 cl         1 OT5      -0.183000
     25 C25          4.4200    -1.8640     0.0260 ca         1 OT5       0.174100
     26 C26          4.7990    -0.7970    -0.8130 ca         1 OT5       0.040000
     27 C27          4.0110     0.3650    -0.8880 ca         1 OT5      -0.034500
     28 Cl8          6.2640    -0.9020    -1.7910 cl         1 OT5      -0.183000
     29 O29          5.1910    -2.9970     0.0950 oh         1 OT5      -0.505100
     30 C30         -3.7770     3.6840     1.0810 c          1 OT5       0.599700
     31 O31         -4.0750     3.0820     2.1050 o          1 OT5      -0.555100
     32 C32         -4.8450     4.4540     0.3070 c3         1 OT5      -0.194100
     33 C33         -5.3290    -5.5310    -1.6680 c3         1 OT5       0.150100
     34 H011        -3.5040    -4.7630     1.1060 h1         1 OT5       0.030033
     35 H012        -4.5690    -6.1410     0.7990 h1         1 OT5       0.030033
     36 H013        -3.0520    -5.9790    -0.1150 h1         1 OT5       0.030033
     37 H031        -2.9350    -4.1810    -1.9430 h1         1 OT5       0.029200
     38 H032        -4.3490    -3.1630    -2.2120 h1         1 OT5       0.029200
     39 H331        -6.0160    -6.1970    -1.1290 h1         1 OT5       0.030033
     40 H332        -5.9220    -4.9400    -2.3780 h1         1 OT5       0.030033
     41 H333        -4.6250    -6.1510    -2.2390 h1         1 OT5       0.030033
     42 H04         -2.4650    -3.0140     0.1760 hc         1 OT5       0.051700
     43 H051        -4.9160    -1.2680    -0.4950 hc         1 OT5       0.045200
     44 H052        -4.7900    -2.3730     0.8680 hc         1 OT5       0.045200
     45 H091        -1.4650    -2.1450    -1.9220 hc         1 OT5       0.045200
     46 H092        -2.8710    -1.1270    -2.2110 hc         1 OT5       0.045200
     47 H061        -4.3530    -0.0190     1.5770 hc         1 OT5       0.054200
     48 H062        -2.9520    -1.0470     1.8670 hc         1 OT5       0.054200
     49 H07         -3.3460     0.8580    -0.5090 h1         1 OT5       0.028700
     50 H081        -1.0600     0.2190    -1.2340 hc         1 OT5       0.054200
     51 H082        -0.8890    -0.8840     0.1340 hc         1 OT5       0.054200
     52 H10         -2.6800     1.5680     1.9140 hn         1 OT5       0.476000
     53 H13         -2.4660     5.7900     0.0010 h4         1 OT5       0.019100
     54 H20          1.9010     5.0270    -1.1650 ha         1 OT5       0.140000
     55 H19          3.4490     3.0910    -1.0500 ha         1 OT5       0.128000
     56 H22          1.5520    -0.5410     1.3180 ha         1 OT5       0.145500
     57 H27          4.3310     1.1540    -1.5630 ha         1 OT5       0.145500
     58 H29          5.9590    -2.8780    -0.5050 ho         1 OT5       0.484000
     59 H321        -4.6690     4.3530    -0.7700 hc         1 OT5       0.064367
     60 H322        -5.8590     4.1580     0.5960 hc         1 OT5       0.064367
     61 H323        -4.7070     5.5250     0.4910 hc         1 OT5       0.064367
@<TRIPOS>BOND
     1     1     2 1   
     2     1    34 1   
     3     1    35 1   
     4     1    36 1   
     5     2     3 1   
     6     2    33 1   
     7     3     4 1   
     8     3    37 1   
     9     3    38 1   
    10     4     5 1   
    11     4     9 1   
    12     4    42 1   
    13     5     6 1   
    14     5    43 1   
    15     5    44 1   
    16     6     7 1   
    17     6    47 1   
    18     6    48 1   
    19     7     8 1   
    20     7    10 1   
    21     7    49 1   
    22     8     9 1   
    23     8    50 1   
    24     8    51 1   
    25     9    45 1   
    26     9    46 1   
    27    10    11 1   
    28    10    52 1   
    29    11    12 ar  
    30    11    16 ar  
    31    12    13 ar  
    32    12    30 1   
    33    13    14 ar  
    34    13    53 1   
    35    14    15 ar  
    36    15    16 ar  
    37    15    20 ar  
    38    16    17 ar  
    39    17    18 ar  
    40    18    19 ar  
    41    18    21 1   
    42    19    20 ar  
    43    19    55 1   
    44    20    54 1   
    45    21    22 ar  
    46    21    27 ar  
    47    22    23 ar  
    48    22    56 1   
    49    23    24 1   
    50    23    25 ar  
    51    25    26 ar  
    52    25    29 1   
    53    26    27 ar  
    54    26    28 1   
    55    27    57 1   
    56    29    58 1   
    57    30    31 2   
    58    30    32 1   
    59    32    59 1   
    60    32    60 1   
    61    32    61 1   
    62    33    39 1   
    63    33    40 1   
    64    33    41 1   
@<TRIPOS>SUBSTRUCTURE
     1 OT5         1 TEMP              0 ****  ****    0 ROOT
