@<TRIPOS>MOLECULE
OT6
   46    47     1     0     0
SMALL
abcg2


@<TRIPOS>ATOM
      1 N1           7.5620    -0.7100    20.9060 ns         1 OT6      -0.150000
      2 N3           7.0110     1.8360    23.6410 n1         1 OT6      -0.430000
      3 C4           6.6970     1.2120    19.6510 ca         1 OT6       0.335900
      4 C5           6.5070     0.1320    20.5140 ca         1 OT6      -0.068000
      5 C6           8.8790    -0.3870    21.0540 c          1 OT6       0.604100
      6 C7           9.7180    -1.4670    21.7250 c3         1 OT6      -0.111100
      7 C8           9.9920    -1.0710    23.1600 ca         1 OT6      -0.027300
      8 C10         11.4630    -0.2740    24.8580 ca         1 OT6       0.176000
      9 C13          6.7300    -0.6840    26.0530 c3         1 OT6       0.239800
     10 C15          4.5270     0.4020    25.5170 c3         1 OT6      -0.083600
     11 C17          6.5880     1.3070    24.5720 c1         1 OT6       0.283900
     12 C14          6.0210     0.6740    25.7680 c3         1 OT6      -0.024900
     13 C16          6.2000     1.6380    26.9550 c3         1 OT6      -0.083600
     14 C12          9.1470    -0.6340    25.3970 ca         1 OT6       0.343000
     15 C11         10.4410    -0.2400    25.7850 ca         1 OT6      -0.179000
     16 CL          13.0710     0.2240    25.3630 cl         1 OT6      -0.214000
     17 C9          11.2710    -0.6730    23.5410 ca         1 OT6      -0.130000
     18 C18          8.9460    -1.0600    24.0770 ca         1 OT6      -0.179000
     19 O            9.3590     0.6900    20.7270 o          1 OT6      -0.558100
     20 C1           5.2180    -0.1330    21.0030 ca         1 OT6      -0.093300
     21 C            4.9460    -1.2830    21.9250 c3         1 OT6      -0.049800
     22 N            5.7120     2.0310    19.2770 nb         1 OT6      -0.642000
     23 C3           4.4880     1.7900    19.7510 ca         1 OT6       0.313900
     24 C2           4.2040     0.7280    20.5980 ca         1 OT6      -0.143000
     25 H1           7.2950    -1.6170    21.2570 hn         1 OT6       0.146000
     26 H2           7.6810     1.4160    19.2560 h4         1 OT6       0.048100
     27 H3           9.2080    -2.4310    21.6890 hc         1 OT6       0.071200
     28 H4          10.6520    -1.5520    21.1720 hc         1 OT6       0.071200
     29 H5           6.5480    -1.3640    25.2220 h1         1 OT6       0.056700
     30 H6           6.2260    -1.1060    26.9240 h1         1 OT6       0.056700
     31 H7           4.0960    -0.0470    26.4130 hc         1 OT6       0.046867
     32 H8           3.9970     1.3310    25.3050 hc         1 OT6       0.046867
     33 H9           4.3870    -0.2820    24.6810 hc         1 OT6       0.046867
     34 H10          5.7900     1.1710    27.8510 hc         1 OT6       0.046867
     35 H11          7.2520     1.8660    27.1260 hc         1 OT6       0.046867
     36 H12          5.6690     2.5710    26.7710 hc         1 OT6       0.046867
     37 H13          8.3920    -0.2350    27.2340 hn         1 OT6       0.482000
     38 H14         10.6260     0.0890    26.7980 ha         1 OT6       0.127000
     39 H15         12.0900    -0.6740    22.8360 ha         1 OT6       0.137000
     40 H16          7.9630    -1.3670    23.7510 ha         1 OT6       0.108000
     41 H17          5.1190    -2.2410    21.4260 hc         1 OT6       0.042367
     42 H18          5.6000    -1.2500    22.7990 hc         1 OT6       0.042367
     43 H19          3.9130    -1.2650    22.2650 hc         1 OT6       0.042367
     44 H20          3.7000     2.4670    19.4390 h4         1 OT6       0.020100
     45 H21          3.1930     0.5720    20.9530 ha         1 OT6       0.117000
     46 N2           8.1400    -0.6140    26.3360 nu         1 OT6      -0.976200
@<TRIPOS>BOND
     1     1     4 1   
     2     1     5 1   
     3     1    25 1   
     4     2    11 3   
     5     3     4 ar  
     6     3    22 ar  
     7     3    26 1   
     8     4    20 ar  
     9     5     6 1   
    10     5    19 2   
    11     6     7 1   
    12     6    27 1   
    13     6    28 1   
    14     7    17 ar  
    15     7    18 ar  
    16     8    15 ar  
    17     8    16 1   
    18     8    17 ar  
    19     9    12 1   
    20     9    29 1   
    21     9    30 1   
    22     9    46 1   
    23    10    12 1   
    24    10    31 1   
    25    10    32 1   
    26    10    33 1   
    27    11    12 1   
    28    12    13 1   
    29    13    34 1   
    30    13    35 1   
    31    13    36 1   
    32    14    15 ar  
    33    14    18 ar  
    34    14    46 1   
    35    15    38 1   
    36    17    39 1   
    37    18    40 1   
    38    20    21 1   
    39    20    24 ar  
    40    21    41 1   
    41    21    42 1   
    42    21    43 1   
    43    22    23 ar  
    44    23    24 ar  
    45    23    44 1   
    46    24    45 1   
    47    37    46 1   
@<TRIPOS>SUBSTRUCTURE
     1 OT6         1 TEMP              0 ****  ****    0 ROOT
