@<TRIPOS>MOLECULE
OT6
   46    47     1     0     0
SMALL
No Charge or Current Charge


@<TRIPOS>ATOM
      1 N1           7.5910    -0.5900    21.0020 ns         1 OT6      -0.150000
      2 N3           7.1940     1.6880    23.6130 n1         1 OT6      -0.430000
      3 C4           6.6550     1.2770    19.6320 ca         1 OT6       0.335900
      4 C5           6.4940     0.1780    20.5150 ca         1 OT6      -0.068000
      5 C6           8.9600    -0.3620    20.9860 c          1 OT6       0.604100
      6 C7           9.7830    -1.4400    21.6990 c3         1 OT6      -0.111100
      7 C8           9.9860    -1.0460    23.1570 ca         1 OT6      -0.027300
      8 C10         11.3470    -0.0800    24.9290 ca         1 OT6       0.176000
      9 C13          6.5910    -0.8030    26.0430 c3         1 OT6       0.239800
     10 C15          4.5820     0.6830    25.6280 c3         1 OT6      -0.083600
     11 C17          6.7340     1.2220    24.5760 c1         1 OT6       0.283900
     12 C14          6.1260     0.6710    25.8050 c3         1 OT6      -0.024900
     13 C16          6.4990     1.5760    27.0140 c3         1 OT6      -0.083600
     14 C12          9.0880    -0.8150    25.4170 ca         1 OT6       0.343000
     15 C11         10.2960    -0.2500    25.8410 ca         1 OT6      -0.179000
     16 Cl          12.8580     0.6430    25.4630 cl         1 OT6      -0.214000
     17 C9          11.1940    -0.4680    23.5880 ca         1 OT6      -0.130000
     18 C18          8.9420    -1.2270    24.0820 ca         1 OT6      -0.179000
     19 O            9.4840     0.6330    20.4990 o          1 OT6      -0.558100
     20 C1           5.1860    -0.1640    20.9260 ca         1 OT6      -0.093300
     21 C            4.9200    -1.3250    21.8800 c3         1 OT6      -0.049800
     22 N            5.6190     2.0150    19.1630 nb         1 OT6      -0.642000
     23 C3           4.3740     1.6810    19.5680 ca         1 OT6       0.313900
     24 C2           4.1170     0.6100    20.4390 ca         1 OT6      -0.143000
     25 H1           7.3170    -1.4430    21.4710 hn         1 OT6       0.146000
     26 H2           7.6330     1.5770    19.2660 h4         1 OT6       0.048100
     27 H3           9.2420    -2.3940    21.6730 hc         1 OT6       0.071200
     28 H4          10.7510    -1.5470    21.1970 hc         1 OT6       0.071200
     29 H5           6.3040    -1.4240    25.1840 h1         1 OT6       0.056700
     30 H6           6.0290    -1.1940    26.9030 h1         1 OT6       0.056700
     31 H7           4.0830     0.2960    26.5260 hc         1 OT6       0.046867
     32 H8           4.2100     1.7000    25.4510 hc         1 OT6       0.046867
     33 H9           4.2750     0.0590    24.7790 hc         1 OT6       0.046867
     34 H10          6.0780     1.1770    27.9450 hc         1 OT6       0.046867
     35 H11          7.5870     1.6500    27.1400 hc         1 OT6       0.046867
     36 H12          6.1110     2.5940    26.8800 hc         1 OT6       0.046867
     37 H13          8.3110    -0.7950    27.3020 hn         1 OT6       0.482000
     38 H14         10.4210     0.0670    26.8720 ha         1 OT6       0.127000
     39 H15         12.0120    -0.3140    22.8890 ha         1 OT6       0.137000
     40 H16          8.0100    -1.6770    23.7560 ha         1 OT6       0.108000
     41 H17          5.2060    -2.2810    21.4250 hc         1 OT6       0.042367
     42 H18          5.4870    -1.2100    22.8110 hc         1 OT6       0.042367
     43 H19          3.8590    -1.3930    22.1500 hc         1 OT6       0.042367
     44 H20          3.5580     2.2900    19.1810 h4         1 OT6       0.020100
     45 H21          3.0920     0.3920    20.7270 ha         1 OT6       0.117000
     46 N2           8.0400    -0.9530    26.3290 nu         1 OT6      -0.976200
@<TRIPOS>BOND
     1     1     4 1   
     2     1     5 1   
     3     1    25 1   
     4     2    11 3   
     5     3     4 ar  
     6     3    22 ar  
     7     3    26 1   
     8     4    20 ar  
     9     5     6 1   
    10     5    19 2   
    11     6     7 1   
    12     6    27 1   
    13     6    28 1   
    14     7    17 ar  
    15     7    18 ar  
    16     8    15 ar  
    17     8    16 1   
    18     8    17 ar  
    19     9    12 1   
    20     9    29 1   
    21     9    30 1   
    22     9    46 1   
    23    10    12 1   
    24    10    31 1   
    25    10    32 1   
    26    10    33 1   
    27    11    12 1   
    28    12    13 1   
    29    13    34 1   
    30    13    35 1   
    31    13    36 1   
    32    14    15 ar  
    33    14    18 ar  
    34    14    46 1   
    35    15    38 1   
    36    17    39 1   
    37    18    40 1   
    38    20    21 1   
    39    20    24 ar  
    40    21    41 1   
    41    21    42 1   
    42    21    43 1   
    43    22    23 ar  
    44    23    24 ar  
    45    23    44 1   
    46    24    45 1   
    47    37    46 1   
@<TRIPOS>SUBSTRUCTURE
     1 OT6         1 TEMP              0 ****  ****    0 ROOT
