@<TRIPOS>MOLECULE
OT7
   57    62     1     0     0
SMALL
No Charge or Current Charge


@<TRIPOS>ATOM
      1 C19         -8.4510   -16.1650    10.8620 ca         1 OT7      -0.112000
      2 C30         -5.7710   -13.1100    12.9730 ca         1 OT7      -0.109000
      3 C29         -6.0520   -11.8340    12.4570 ca         1 OT7      -0.061000
      4 C18         -9.3390   -17.2100    10.6000 ca         1 OT7      -0.056000
      5 C5         -10.7280   -23.0310    14.6910 cc         1 OT7      -0.231000
      6 C4         -11.2690   -23.5070    15.8920 cc         1 OT7       0.246900
      7 C8         -10.2120   -21.3250    12.2300 cd         1 OT7       0.276900
      8 C11        -11.8580   -19.9480    12.8990 cc         1 OT7      -0.118000
      9 C21        -10.1120   -15.0720    12.3100 ca         1 OT7      -0.109300
     10 C33         -5.5330   -16.3270    12.8000 cc         1 OT7       0.399400
     11 C20         -8.8260   -15.0990    11.7090 cp         1 OT7      -0.013000
     12 C7         -11.1810   -21.0890    13.2260 cd         1 OT7      -0.158000
     13 C24         -7.8650   -13.9870    11.9800 cp         1 OT7      -0.053000
     14 C31         -6.6710   -14.1620    12.7370 ca         1 OT7       0.039800
     15 C25         -8.1240   -12.6840    11.4800 ca         1 OT7       0.200000
     16 C27         -7.2270   -11.6210    11.7140 ca         1 OT7       0.080000
     17 C6         -11.4210   -21.9010    14.3930 cd         1 OT7      -0.033000
     18 C17        -10.6140   -17.1980    11.1950 ca         1 OT7      -0.171300
     19 C15        -14.4080   -19.0880     9.1410 cx         1 OT7      -0.129400
     20 C16        -13.7570   -19.4780     7.8330 cx         1 OT7      -0.129400
     21 C14        -12.9760   -19.5670     9.1230 cx         1 OT7      -0.133700
     22 C13        -11.8220   -18.6080     9.4120 c3         1 OT7      -0.056400
     23 C12        -11.6070   -18.3420    10.9280 c3         1 OT7       0.168600
     24 N3         -12.2490   -22.7640    16.3740 nd         1 OT7      -0.532800
     25 N9         -10.2330   -20.3990    11.2900 nc         1 OT7      -0.529800
     26 N34         -5.6290   -17.3750    13.5990 nd         1 OT7      -0.375000
     27 N35         -6.6230   -17.0830    14.5190 nd         1 OT7      -0.027000
     28 N36         -7.1380   -15.8940    14.3290 nc         1 OT7      -0.174800
     29 N10        -11.2570   -19.5560    11.7040 na         1 OT7       0.123800
     30 N32         -6.4780   -15.4490    13.2400 na         1 OT7      -0.020500
     31 N2         -12.3550   -21.7420    15.4310 na         1 OT7       0.116800
     32 N22        -10.9580   -16.1630    12.0810 na         1 OT7       0.452300
     33 O23        -12.0170   -16.2210    12.7210 o          1 OT7      -0.518000
     34 F26         -9.2450   -12.4560    10.7540 f          1 OT7      -0.145000
     35 Cl28        -7.5600   -10.0100    11.0790 cl         1 OT7      -0.144000
     36 H1          -7.4660   -16.1700    10.4000 ha         1 OT7       0.131000
     37 H2          -4.8690   -13.2760    13.5590 ha         1 OT7       0.143000
     38 H3          -5.3640   -11.0100    12.6340 ha         1 OT7       0.147000
     39 H4          -9.0330   -18.0230     9.9450 ha         1 OT7       0.144000
     40 H5          -9.9200   -23.4940    14.1360 ha         1 OT7       0.143000
     41 H6         -10.9690   -24.3920    16.4380 h4         1 OT7       0.033100
     42 H7          -9.4960   -22.1340    12.1640 h4         1 OT7       0.044100
     43 H8         -12.6620   -19.3950    13.3640 h4         1 OT7       0.160000
     44 H9         -10.4500   -14.2810    12.9750 h4         1 OT7       0.179000
     45 H10         -4.8660   -16.1620    11.9630 h5         1 OT7       0.076100
     46 H11        -14.5940   -18.0300     9.3160 hc         1 OT7       0.073200
     47 H12        -15.1610   -19.7560     9.5530 hc         1 OT7       0.073200
     48 H13        -13.5070   -18.6830     7.1340 hc         1 OT7       0.073200
     49 H14        -14.0720   -20.4090     7.3670 hc         1 OT7       0.073200
     50 H15        -12.7930   -20.5690     9.5070 hc         1 OT7       0.090700
     51 H16        -13.9300   -20.8460    16.5200 h1         1 OT7       0.053367
     52 H17        -12.8490   -19.7070    15.6700 h1         1 OT7       0.053367
     53 H18        -14.0410   -20.6800    14.7460 h1         1 OT7       0.053367
     54 H19        -10.9030   -19.0050     8.9650 hc         1 OT7       0.060700
     55 H20        -12.0100   -17.6460     8.9190 hc         1 OT7       0.060700
     56 H21        -12.5940   -18.0330    11.2950 h1         1 OT7       0.098700
     57 C1         -13.3550   -20.6780    15.6010 c3         1 OT7       0.073900
@<TRIPOS>BOND
     1     1     4 ar  
     2     1    11 ar  
     3     1    36 1   
     4     2     3 ar  
     5     2    14 ar  
     6     2    37 1   
     7     3    16 ar  
     8     3    38 1   
     9     4    18 ar  
    10     4    39 1   
    11     5     6 1   
    12     5    17 2   
    13     5    40 1   
    14     6    24 2   
    15     6    41 1   
    16     7    12 1   
    17     7    25 2   
    18     7    42 1   
    19     8    12 2   
    20     8    29 1   
    21     8    43 1   
    22     9    11 ar  
    23     9    32 2   
    24     9    44 1   
    25    10    26 2   
    26    10    30 1   
    27    10    45 1   
    28    11    13 1   
    29    12    17 1   
    30    13    14 ar  
    31    13    15 ar  
    32    14    30 1   
    33    15    16 ar  
    34    15    34 1   
    35    16    35 1   
    36    17    31 1   
    37    18    23 1   
    38    18    32 1   
    39    19    20 1   
    40    19    21 1   
    41    19    46 1   
    42    19    47 1   
    43    20    21 1   
    44    20    48 1   
    45    20    49 1   
    46    21    22 1   
    47    21    50 1   
    48    22    23 1   
    49    22    54 1   
    50    22    55 1   
    51    23    29 1   
    52    23    56 1   
    53    24    31 1   
    54    25    29 1   
    55    26    27 1   
    56    27    28 2   
    57    28    30 1   
    58    31    57 1   
    59    32    33 1   
    60    51    57 1   
    61    52    57 1   
    62    53    57 1   
@<TRIPOS>SUBSTRUCTURE
     1 OT7         1 TEMP              0 ****  ****    0 ROOT
