@<TRIPOS>MOLECULE
OT7
   57    62     1     0     0
SMALL
abcg2


@<TRIPOS>ATOM
      1 C19         -8.5630   -15.7870    10.6430 ca         1 OT7      -0.112000
      2 C30         -5.5050   -13.0790    12.4940 ca         1 OT7      -0.109000
      3 C29         -5.9670   -11.7710    12.5270 ca         1 OT7      -0.061000
      4 C18         -9.4630   -16.8170    10.4310 ca         1 OT7      -0.056000
      5 C5         -11.0230   -22.5900    15.4470 cc         1 OT7      -0.231000
      6 C4         -11.9320   -23.3030    16.2390 cc         1 OT7       0.246900
      7 C8         -10.1110   -20.8480    12.9690 cd         1 OT7       0.276900
      8 C11        -12.0600   -19.8070    12.9940 cc         1 OT7      -0.118000
      9 C21         -9.7520   -15.2530    12.6460 ca         1 OT7      -0.109300
     10 C33         -5.0020   -16.0300    11.4460 cc         1 OT7       0.399400
     11 C20         -8.7110   -14.9940    11.7780 cp         1 OT7      -0.013000
     12 C7         -11.3860   -20.8670    13.5880 cd         1 OT7      -0.158000
     13 C24         -7.7630   -13.8930    12.0740 cp         1 OT7      -0.053000
     14 C31         -6.3960   -14.1170    12.2710 ca         1 OT7       0.039800
     15 C25         -8.1950   -12.5730    12.1300 ca         1 OT7       0.200000
     16 C27         -7.3180   -11.5160    12.3500 ca         1 OT7       0.080000
     17 C6         -11.8080   -21.7960    14.6170 cd         1 OT7      -0.033000
     18 C17        -10.4950   -17.0650    11.3180 ca         1 OT7      -0.171300
     19 C15        -14.1820   -19.2680     9.5790 cx         1 OT7      -0.129400
     20 C16        -13.5260   -19.8510     8.3520 cx         1 OT7      -0.129400
     21 C14        -12.7500   -19.7270     9.6320 cx         1 OT7      -0.133700
     22 C13        -11.6450   -18.7060     9.7430 c3         1 OT7      -0.056400
     23 C12        -11.5090   -18.1650    11.1680 c3         1 OT7       0.168600
     24 N3         -13.1910   -22.9900    15.9350 nd         1 OT7      -0.532800
     25 N9         -10.0160   -19.8730    12.0740 nc         1 OT7      -0.529800
     26 N34         -4.8590   -17.2860    11.8040 nd         1 OT7      -0.375000
     27 N35         -5.6930   -17.4670    12.8610 nd         1 OT7      -0.027000
     28 N36         -6.3230   -16.3840    13.1460 nc         1 OT7      -0.174800
     29 N10        -11.2100   -19.2470    12.1090 na         1 OT7       0.123800
     30 N32         -5.9020   -15.4530    12.2600 na         1 OT7      -0.020500
     31 N2         -13.1000   -22.0740    14.9430 na         1 OT7       0.116800
     32 N22        -10.6280   -16.2680    12.4280 na         1 OT7       0.452300
     33 O23        -11.5790   -16.4760    13.2770 o          1 OT7      -0.518000
     34 F26         -9.4960   -12.3090    11.9370 f          1 OT7      -0.145000
     35 CL28        -7.9270    -9.8950    12.3930 cl         1 OT7      -0.144000
     36 H1          -7.7640   -15.6010     9.9390 ha         1 OT7       0.131000
     37 H2          -4.4580   -13.2940    12.6550 ha         1 OT7       0.143000
     38 H3          -5.2850   -10.9520    12.7030 ha         1 OT7       0.147000
     39 H4          -9.3670   -17.4460     9.5600 ha         1 OT7       0.144000
     40 H5          -9.9470   -22.6260    15.4730 ha         1 OT7       0.143000
     41 H6         -11.7300   -24.0270    17.0130 h4         1 OT7       0.033100
     42 H7          -9.2780   -21.5100    13.1460 h4         1 OT7       0.044100
     43 H8         -13.0450   -19.4040    13.1410 h4         1 OT7       0.160000
     44 H9          -9.9350   -14.6930    13.5490 h4         1 OT7       0.179000
     45 H10         -4.5070   -15.5220    10.6370 h5         1 OT7       0.076100
     46 H11        -14.3630   -18.2010     9.5930 hc         1 OT7       0.073200
     47 H12        -14.9290   -19.8600    10.0910 hc         1 OT7       0.073200
     48 H13        -13.2730   -19.1720     7.5470 hc         1 OT7       0.073200
     49 H14        -13.8290   -20.8390     8.0320 hc         1 OT7       0.073200
     50 H15        -12.5690   -20.6520    10.1660 hc         1 OT7       0.090700
     51 H16        -15.1410   -22.1490    14.6920 h1         1 OT7       0.053367
     52 H17        -14.4770   -20.5020    14.7020 h1         1 OT7       0.053367
     53 H18        -14.2510   -21.5450    13.2790 h1         1 OT7       0.053367
     54 H19        -10.7000   -19.1490     9.4220 hc         1 OT7       0.060700
     55 H20        -11.8530   -17.8620     9.0810 hc         1 OT7       0.060700
     56 H21        -12.4710   -17.7670    11.4900 h1         1 OT7       0.098700
     57 C1         -14.3130   -21.5270    14.3670 c3         1 OT7       0.073900
@<TRIPOS>BOND
     1     1     4 ar  
     2     1    11 ar  
     3     1    36 1   
     4     2     3 ar  
     5     2    14 ar  
     6     2    37 1   
     7     3    16 ar  
     8     3    38 1   
     9     4    18 ar  
    10     4    39 1   
    11     5     6 1   
    12     5    17 2   
    13     5    40 1   
    14     6    24 2   
    15     6    41 1   
    16     7    12 1   
    17     7    25 2   
    18     7    42 1   
    19     8    12 2   
    20     8    29 1   
    21     8    43 1   
    22     9    11 ar  
    23     9    32 2   
    24     9    44 1   
    25    10    26 2   
    26    10    30 1   
    27    10    45 1   
    28    11    13 1   
    29    12    17 1   
    30    13    14 ar  
    31    13    15 ar  
    32    14    30 1   
    33    15    16 ar  
    34    15    34 1   
    35    16    35 1   
    36    17    31 1   
    37    18    23 1   
    38    18    32 1   
    39    19    20 1   
    40    19    21 1   
    41    19    46 1   
    42    19    47 1   
    43    20    21 1   
    44    20    48 1   
    45    20    49 1   
    46    21    22 1   
    47    21    50 1   
    48    22    23 1   
    49    22    54 1   
    50    22    55 1   
    51    23    29 1   
    52    23    56 1   
    53    24    31 1   
    54    25    29 1   
    55    26    27 1   
    56    27    28 2   
    57    28    30 1   
    58    31    57 1   
    59    32    33 1   
    60    51    57 1   
    61    52    57 1   
    62    53    57 1   
@<TRIPOS>SUBSTRUCTURE
     1 OT7         1 TEMP              0 ****  ****    0 ROOT
