@<TRIPOS>MOLECULE
OT8
   46    49     1     0     0
SMALL
bcc


@<TRIPOS>ATOM
      1 C13        -33.8310   -26.8870     4.7280 cc         1 OT8      -0.226600
      2 C17        -31.8730   -25.2400     5.0870 c3         1 OT8       0.222500
      3 C20        -36.8000   -30.0900     4.6220 ca         1 OT8      -0.172500
      4 C21        -38.1320   -29.6880     4.5650 ca         1 OT8       0.153100
      5 C22        -38.4560   -28.3450     4.7200 ca         1 OT8      -0.172500
      6 C26        -41.2090   -30.5370     5.3360 ca         1 OT8      -0.133000
      7 C28        -43.0790   -29.8370     3.9890 ca         1 OT8      -0.124000
      8 C02        -32.4320   -23.9350     1.0120 ca         1 OT8       0.442200
      9 C03        -32.3300   -24.3990     2.3100 ca         1 OT8      -0.318300
     10 C04        -31.9040   -23.5190     3.3150 ca         1 OT8       0.240600
     11 C05        -31.6040   -22.2000     2.9140 ca         1 OT8      -0.289300
     12 C06        -31.7340   -21.8720     1.5860 ca         1 OT8       0.346600
     13 C07        -31.3830   -20.5010     1.0730 c3         1 OT8       0.627600
     14 C12        -33.2770   -25.7370     5.2220 cd         1 OT8       0.230600
     15 C18        -36.1250   -27.8150     4.9760 ca         1 OT8      -0.045200
     16 C19        -35.8020   -29.1600     4.8380 ca         1 OT8      -0.083000
     17 C23        -37.4500   -27.4110     4.9140 ca         1 OT8      -0.083000
     18 C25        -40.3750   -30.3550     4.2440 ca         1 OT8       0.086100
     19 C27        -42.5670   -30.2790     5.2010 ca         1 OT8      -0.118000
     20 C29        -42.2300   -29.6550     2.9050 ca         1 OT8      -0.118000
     21 C30        -40.8720   -29.9130     3.0270 ca         1 OT8      -0.133000
     22 F08        -30.4140   -20.5730     0.1520 f          1 OT8      -0.230300
     23 F09        -30.9540   -19.6770     2.0320 f          1 OT8      -0.230300
     24 F10        -32.4300   -19.9100     0.4860 f          1 OT8      -0.230300
     25 N01        -32.1430   -22.7000     0.6280 nb         1 OT8      -0.673000
     26 N11        -31.7640   -23.8850     4.6050 nu         1 OT8      -0.767600
     27 N14        -35.1010   -26.8630     5.1790 na         1 OT8       0.185300
     28 N15        -35.3190   -25.7700     5.9000 nc         1 OT8      -0.188800
     29 N16        -34.2300   -25.0890     5.9280 nd         1 OT8      -0.341000
     30 H131       -33.4360   -27.6690     4.1030 h4         1 OT8       0.188000
     31 H172       -31.3130   -25.9250     4.4450 h1         1 OT8       0.056700
     32 H171       -31.3830   -25.2660     6.0610 h1         1 OT8       0.056700
     33 H201       -36.5480   -31.1370     4.5110 ha         1 OT8       0.155500
     34 H221       -39.4830   -28.0050     4.6800 ha         1 OT8       0.155500
     35 H281       -44.1380   -29.6380     3.8880 ha         1 OT8       0.138000
     36 H021       -32.7680   -24.6130     0.2350 h4         1 OT8       0.020100
     37 H031       -32.5860   -25.4270     2.5200 ha         1 OT8       0.142000
     38 H051       -31.2650   -21.4800     3.6470 ha         1 OT8       0.154000
     39 H191       -34.7760   -29.4960     4.9070 ha         1 OT8       0.152000
     40 H231       -37.7100   -26.3660     5.0150 ha         1 OT8       0.152000
     41 H271       -43.2240   -30.4260     6.0490 ha         1 OT8       0.138000
     42 H291       -42.6240   -29.3120     1.9570 ha         1 OT8       0.138000
     43 H301       -40.2060   -29.7790     2.1830 ha         1 OT8       0.147500
     44 H111       -31.4340   -23.1920     5.2550 hn         1 OT8       0.446800
     45 O24        -39.0430   -30.6720     4.3680 os         1 OT8      -0.249200
     46 H261       -40.8020   -30.8850     6.2770 ha         1 OT8       0.147500
@<TRIPOS>BOND
     1     1    14 2   
     2     1    27 1   
     3     1    30 1   
     4     2    14 1   
     5     2    26 1   
     6     2    31 1   
     7     2    32 1   
     8     3     4 ar  
     9     3    16 ar  
    10     3    33 1   
    11     4     5 ar  
    12     4    45 1   
    13     5    17 ar  
    14     5    34 1   
    15     6    18 ar  
    16     6    19 ar  
    17     6    46 1   
    18     7    19 ar  
    19     7    20 ar  
    20     7    35 1   
    21     8     9 ar  
    22     8    25 ar  
    23     8    36 1   
    24     9    10 ar  
    25     9    37 1   
    26    10    11 ar  
    27    10    26 1   
    28    11    12 ar  
    29    11    38 1   
    30    12    13 1   
    31    12    25 ar  
    32    13    22 1   
    33    13    23 1   
    34    13    24 1   
    35    14    29 1   
    36    15    16 ar  
    37    15    17 ar  
    38    15    27 1   
    39    16    39 1   
    40    17    40 1   
    41    18    21 ar  
    42    18    45 1   
    43    19    41 1   
    44    20    21 ar  
    45    20    42 1   
    46    21    43 1   
    47    26    44 1   
    48    27    28 1   
    49    28    29 2   
@<TRIPOS>SUBSTRUCTURE
     1 OT8         1 TEMP              0 ****  ****    0 ROOT
