@<TRIPOS>MOLECULE
OT8
   46    49     1     0     0
SMALL
No Charge or Current Charge


@<TRIPOS>ATOM
      1 C13        -33.3730   -26.7590     4.8910 cc         1 OT8      -0.194000
      2 C17        -31.1910   -25.3910     5.2100 c3         1 OT8       0.222500
      3 C20        -36.5590   -29.7370     4.6430 ca         1 OT8      -0.154500
      4 C21        -37.8490   -29.2510     4.9050 ca         1 OT8       0.153100
      5 C22        -38.0140   -27.9650     5.4530 ca         1 OT8      -0.154500
      6 C26        -41.3260   -30.1470     4.6050 ca         1 OT8      -0.115000
      7 C28        -42.5810   -28.6690     3.1320 ca         1 OT8      -0.106000
      8 C02        -32.4680   -25.0980     0.9690 ca         1 OT8       0.376900
      9 C03        -31.8210   -25.2000     2.2040 ca         1 OT8      -0.235000
     10 C04        -31.9200   -24.1390     3.1040 ca         1 OT8       0.379000
     11 C05        -32.6560   -23.0120     2.7360 ca         1 OT8      -0.206000
     12 C06        -33.2840   -22.9750     1.4790 ca         1 OT8       0.281300
     13 C07        -34.1070   -21.7350     1.0680 c3         1 OT8       0.263700
     14 C12        -32.5660   -25.9060     5.5970 cd         1 OT8       0.165300
     15 C18        -35.5910   -27.6390     5.4400 ca         1 OT8      -0.045200
     16 C19        -35.4340   -28.9360     4.9040 ca         1 OT8      -0.065000
     17 C23        -36.8910   -27.1610     5.7160 ca         1 OT8      -0.065000
     18 C25        -40.1230   -29.5840     4.1490 ca         1 OT8       0.086100
     19 C27        -42.5560   -29.6880     4.1010 ca         1 OT8      -0.100000
     20 C29        -41.3770   -28.1130     2.6640 ca         1 OT8      -0.100000
     21 C30        -40.1470   -28.5720     3.1680 ca         1 OT8      -0.115000
     22 F08        -33.3520   -20.6120     1.0770 f          1 OT8      -0.109000
     23 F09        -35.1380   -21.5190     1.9180 f          1 OT8      -0.109000
     24 F10        -34.6430   -21.8310    -0.1740 f          1 OT8      -0.109000
     25 N01        -33.1880   -24.0140     0.6070 nb         1 OT8      -0.673000
     26 N11        -31.3000   -24.1870     4.3490 nu         1 OT8      -0.961200
     27 N14        -34.4720   -26.8390     5.6970 na         1 OT8       0.236000
     28 N15        -34.3680   -26.1200     6.8450 nc         1 OT8      -0.188800
     29 N16        -33.1990   -25.5360     6.7780 nd         1 OT8      -0.341000
     30 H131       -33.2630   -27.2610     3.9410 h4         1 OT8       0.170000
     31 H172       -30.6430   -26.1890     4.6920 h1         1 OT8       0.056700
     32 H171       -30.6320   -25.1510     6.1250 h1         1 OT8       0.056700
     33 H201       -36.4330   -30.7360     4.2330 ha         1 OT8       0.137500
     34 H221       -39.0090   -27.5900     5.6780 ha         1 OT8       0.137500
     35 H281       -43.5320   -28.3140     2.7410 ha         1 OT8       0.120000
     36 H021       -32.4110   -25.9080     0.2430 h4         1 OT8       0.020100
     37 H031       -31.2490   -26.0900     2.4410 ha         1 OT8       0.124000
     38 H051       -32.7500   -22.1710     3.4160 ha         1 OT8       0.136000
     39 H191       -34.4400   -29.3290     4.6970 ha         1 OT8       0.134000
     40 H231       -37.0330   -26.1660     6.1320 ha         1 OT8       0.134000
     41 H271       -43.4880   -30.1210     4.4590 ha         1 OT8       0.120000
     42 H291       -41.3970   -27.3290     1.9090 ha         1 OT8       0.120000
     43 H301       -39.2200   -28.1460     2.7940 ha         1 OT8       0.129500
     44 H111       -31.3260   -23.2990     4.8570 hn         1 OT8       0.502000
     45 O24        -38.9320   -30.0620     4.6500 os         1 OT8      -0.249200
     46 H261       -41.3060   -30.9370     5.3530 ha         1 OT8       0.129500
@<TRIPOS>BOND
     1     1    14 2   
     2     1    27 1   
     3     1    30 1   
     4     2    14 1   
     5     2    26 1   
     6     2    31 1   
     7     2    32 1   
     8     3     4 ar  
     9     3    16 ar  
    10     3    33 1   
    11     4     5 ar  
    12     4    45 1   
    13     5    17 ar  
    14     5    34 1   
    15     6    18 ar  
    16     6    19 ar  
    17     6    46 1   
    18     7    19 ar  
    19     7    20 ar  
    20     7    35 1   
    21     8     9 ar  
    22     8    25 ar  
    23     8    36 1   
    24     9    10 ar  
    25     9    37 1   
    26    10    11 ar  
    27    10    26 1   
    28    11    12 ar  
    29    11    38 1   
    30    12    13 1   
    31    12    25 ar  
    32    13    22 1   
    33    13    23 1   
    34    13    24 1   
    35    14    29 1   
    36    15    16 ar  
    37    15    17 ar  
    38    15    27 1   
    39    16    39 1   
    40    17    40 1   
    41    18    21 ar  
    42    18    45 1   
    43    19    41 1   
    44    20    21 ar  
    45    20    42 1   
    46    21    43 1   
    47    26    44 1   
    48    27    28 1   
    49    28    29 2   
@<TRIPOS>SUBSTRUCTURE
     1 OT8         1 TEMP              0 ****  ****    0 ROOT
