@<TRIPOS>MOLECULE
OTA
   26    27     1     0     0
SMALL
bcc


@<TRIPOS>ATOM
      1 N1          -1.3410     0.4130    -4.2820 n7         1 OTA      -0.797200
      2 C2          -2.0700    -0.0330    -3.1090 c6         1 OTA       0.260100
      3 C3          -1.1400    -0.0210    -1.9370 cc         1 OTA      -0.206400
      4 C4           0.2150     0.0270    -2.0120 cd         1 OTA       0.002700
      5 C5           0.8870     0.0470    -3.3550 c6         1 OTA       0.001900
      6 C6          -0.1050    -0.3330    -4.4480 c6         1 OTA       0.158800
      7 S13         -1.7140    -0.0730    -0.3070 ss         1 OTA      -0.151800
      8 C14         -0.0910    -0.0270     0.2880 cc         1 OTA       0.167500
      9 C15          0.8440     0.0370    -0.7190 cd         1 OTA      -0.270600
     10 C16          2.3230     0.1260    -0.4470 c          1 OTA       0.948200
     11 O17          2.6860     0.0540     0.7560 o          1 OTA      -0.838300
     12 O18          3.0810     0.2730    -1.4200 o          1 OTA      -0.838300
     13 N19          0.1980    -0.0490     1.6310 ns         1 OTA      -0.431100
     14 C20         -0.7070    -0.0910     2.6280 c          1 OTA       0.505100
     15 C21         -0.0840    -0.1110     4.0510 c          1 OTA       0.880600
     16 O22         -0.9000    -0.1410     4.9780 o          1 OTA      -0.803800
     17 O23          1.1580    -0.0940     4.0960 o          1 OTA      -0.803800
     18 O24         -1.9110    -0.1130     2.4210 o          1 OTA      -0.656100
     19 H1          -1.9270     0.2890    -5.0970 hn         1 OTA       0.312800
     20 H21         -2.4960    -1.0430    -3.2310 h1         1 OTA       0.007700
     21 H22A        -2.9160     0.6390    -2.9370 h1         1 OTA       0.007700
     22 H51          1.7320    -0.6410    -3.3690 hc         1 OTA       0.063200
     23 H52          1.2990     1.0400    -3.5530 hc         1 OTA       0.063200
     24 H61         -0.2690    -1.4230    -4.4240 h1         1 OTA       0.004200
     25 H62          0.3170    -0.0980    -5.4260 h1         1 OTA       0.004200
     26 H19          1.2070    -0.0320     1.8150 hn         1 OTA       0.411500
@<TRIPOS>BOND
     1     1     2 1   
     2     1     6 1   
     3     1    19 1   
     4     2     3 1   
     5     2    20 1   
     6     2    21 1   
     7     3     4 2   
     8     3     7 1   
     9     4     5 1   
    10     4     9 1   
    11     5     6 1   
    12     5    22 1   
    13     5    23 1   
    14     6    24 1   
    15     6    25 1   
    16     7     8 1   
    17     8     9 2   
    18     8    13 1   
    19     9    10 1   
    20    10    11 1   
    21    10    12 1   
    22    13    14 1   
    23    13    26 1   
    24    14    15 1   
    25    14    18 2   
    26    15    16 1   
    27    15    17 1   
@<TRIPOS>SUBSTRUCTURE
     1 OTA         1 TEMP              0 ****  ****    0 ROOT
