@<TRIPOS>MOLECULE
OTA
   26    27     1     0     0
SMALL
No Charge or Current Charge


@<TRIPOS>ATOM
      1 N1          -1.3370     0.4480    -4.3840 n7         1 OTA      -0.852400
      2 C2          -2.0970    -0.0690    -3.2310 c6         1 OTA       0.260100
      3 C3          -1.2260    -0.0430    -2.0010 cc         1 OTA      -0.351300
      4 C4           0.1490    -0.0200    -2.0140 cd         1 OTA       0.002700
      5 C5           0.9020     0.0180    -3.3370 c6         1 OTA       0.001900
      6 C6          -0.0370    -0.2390    -4.5450 c6         1 OTA       0.158800
      7 S13         -1.8550    -0.0880    -0.3700 ss         1 OTA       0.138000
      8 C14         -0.2210    -0.0420     0.2970 cc         1 OTA       0.022600
      9 C15          0.7480    -0.0020    -0.7000 cd         1 OTA      -0.270600
     10 C16          2.2260     0.0590    -0.4010 c          1 OTA       0.737600
     11 O17          2.6050     0.0560     0.7620 o          1 OTA      -0.733000
     12 O18          3.0220     0.1210    -1.3240 o          1 OTA      -0.733000
     13 N19          0.0970    -0.0380     1.6510 ns         1 OTA      -0.364100
     14 C20         -0.7280    -0.0730     2.7700 c          1 OTA       0.438100
     15 C21          0.0970    -0.0510     4.1780 c          1 OTA       0.670000
     16 O22         -0.5260    -0.0780     5.2380 o          1 OTA      -0.698500
     17 O23          1.3250    -0.0090     4.1240 o          1 OTA      -0.698500
     18 O24         -1.9610    -0.1150     2.6970 o          1 OTA      -0.656100
     19 H1          -1.9000     0.2950    -5.2270 hn         1 OTA       0.368000
     20 H21         -2.4220    -1.0980    -3.4440 h1         1 OTA       0.007700
     21 H22A        -2.9980     0.5450    -3.0880 h1         1 OTA       0.007700
     22 H51          1.7030    -0.7320    -3.3600 hc         1 OTA       0.063200
     23 H52          1.3810     0.9980    -3.4600 hc         1 OTA       0.063200
     24 H61         -0.2170    -1.3190    -4.6450 h1         1 OTA       0.004200
     25 H62          0.4500     0.1040    -5.4690 h1         1 OTA       0.004200
     26 H19          1.0950    -0.0050     1.8750 hn         1 OTA       0.411500
@<TRIPOS>BOND
     1     1     2 1   
     2     1     6 1   
     3     1    19 1   
     4     2     3 1   
     5     2    20 1   
     6     2    21 1   
     7     3     4 2   
     8     3     7 1   
     9     4     5 1   
    10     4     9 1   
    11     5     6 1   
    12     5    22 1   
    13     5    23 1   
    14     6    24 1   
    15     6    25 1   
    16     7     8 1   
    17     8     9 2   
    18     8    13 1   
    19     9    10 1   
    20    10    11 1   
    21    10    12 1   
    22    13    14 1   
    23    13    26 1   
    24    14    15 1   
    25    14    18 2   
    26    15    16 1   
    27    15    17 1   
@<TRIPOS>SUBSTRUCTURE
     1 OTA         1 TEMP              0 ****  ****    0 ROOT
