@<TRIPOS>MOLECULE
OTB
   17    16     1     0     0
SMALL
bcc


@<TRIPOS>ATOM
      1 C           -0.1530    -0.0050    -1.4140 c          1 OTB       0.507100
      2 O1           1.0800    -0.0020    -1.4970 o          1 OTB      -0.567000
      3 O2          -0.9940    -0.0050    -2.3250 o          1 OTB      -0.567000
      4 O           -0.7500    -0.0090    -0.1620 os         1 OTB      -0.520900
      5 C4          -0.0090    -0.0090     1.0580 c3         1 OTB       0.206800
      6 C1          -1.0930    -0.0120     2.1360 c3         1 OTB      -0.094433
      7 C2           0.8400     1.2510     1.2160 c3         1 OTB      -0.094433
      8 C3           0.8440    -1.2680     1.2110 c3         1 OTB      -0.094433
      9 H11         -0.6460    -0.0140     3.1310 hc         1 OTB       0.024811
     10 H12         -1.7290     0.8710     2.0590 hc         1 OTB       0.024811
     11 H13         -1.7280    -0.8960     2.0550 hc         1 OTB       0.024811
     12 H21          0.2270     2.1470     1.0970 hc         1 OTB       0.024811
     13 H22          1.2730     1.2850     2.2170 hc         1 OTB       0.024811
     14 H23          1.6510     1.2900     0.4940 hc         1 OTB       0.024811
     15 H31          0.2320    -2.1650     1.0960 hc         1 OTB       0.024811
     16 H32          1.6500    -1.3040     0.4820 hc         1 OTB       0.024811
     17 H33          1.2830    -1.3000     2.2100 hc         1 OTB       0.024811
@<TRIPOS>BOND
     1     1     2 1   
     2     1     3 1   
     3     1     4 1   
     4     4     5 1   
     5     5     6 1   
     6     5     7 1   
     7     5     8 1   
     8     6     9 1   
     9     6    10 1   
    10     6    11 1   
    11     7    12 1   
    12     7    13 1   
    13     7    14 1   
    14     8    15 1   
    15     8    16 1   
    16     8    17 1   
@<TRIPOS>SUBSTRUCTURE
     1 OTB         1 TEMP              0 ****  ****    0 ROOT
