@<TRIPOS>MOLECULE
OTB
   17    16     1     0     0
SMALL
No Charge or Current Charge


@<TRIPOS>ATOM
      1 C           -0.1820    -0.0050    -1.4010 c          1 OTB       0.827100
      2 O1           1.0280    -0.0030    -1.5440 o          1 OTB      -0.727000
      3 O2          -0.9530    -0.0050    -2.3450 o          1 OTB      -0.727000
      4 O           -0.7570    -0.0080    -0.1570 os         1 OTB      -0.544100
      5 C4          -0.0050    -0.0090     1.0860 c3         1 OTB       0.230000
      6 C1          -1.0930    -0.0120     2.1880 c3         1 OTB      -0.094433
      7 C2           0.8420     1.2900     1.2020 c3         1 OTB      -0.094433
      8 C3           0.8450    -1.3060     1.1970 c3         1 OTB      -0.094433
      9 H11         -0.6380    -0.0130     3.1860 hc         1 OTB       0.024811
     10 H12         -1.7330     0.8750     2.1100 hc         1 OTB       0.024811
     11 H13         -1.7300    -0.9020     2.1070 hc         1 OTB       0.024811
     12 H21          0.2420     2.1720     0.9460 hc         1 OTB       0.024811
     13 H22          1.2060     1.4170     2.2280 hc         1 OTB       0.024811
     14 H23          1.7220     1.2690     0.5510 hc         1 OTB       0.024811
     15 H31          0.2480    -2.1880     0.9390 hc         1 OTB       0.024811
     16 H32          1.7260    -1.2800     0.5470 hc         1 OTB       0.024811
     17 H33          1.2100    -1.4350     2.2240 hc         1 OTB       0.024811
@<TRIPOS>BOND
     1     1     2 1   
     2     1     3 1   
     3     1     4 1   
     4     4     5 1   
     5     5     6 1   
     6     5     7 1   
     7     5     8 1   
     8     6     9 1   
     9     6    10 1   
    10     6    11 1   
    11     7    12 1   
    12     7    13 1   
    13     7    14 1   
    14     8    15 1   
    15     8    16 1   
    16     8    17 1   
@<TRIPOS>SUBSTRUCTURE
     1 OTB         1 TEMP              0 ****  ****    0 ROOT
