@<TRIPOS>MOLECULE
OTC
   57    60     1     0     0
SMALL
No Charge or Current Charge


@<TRIPOS>ATOM
      1 C1          -1.5900    -1.0890    -0.6470 c          1 OTC       0.594300
      2 O1          -1.2410    -1.9980    -1.3900 o          1 OTC      -0.468100
      3 C2          -2.5270     0.0070    -1.0930 ce         1 OTC      -0.395400
      4 O21         -2.7410    -0.7890    -3.3510 o          1 OTC      -0.539100
      5 C21         -2.8100     0.1280    -2.5570 c          1 OTC       0.614300
      6 N21         -3.1500     1.3520    -3.0160 nt         1 OTC      -0.615000
      7 C3          -3.0860     0.8230    -0.1520 c2         1 OTC       0.197900
      8 O3          -3.9990     1.7780    -0.4150 oh         1 OTC      -0.527100
      9 C4          -2.7500     0.7500     1.3580 c6         1 OTC       0.207700
     10 N4          -3.6490    -0.1760     2.1560 n3         1 OTC      -0.735600
     11 C41         -3.4870    -0.0300     3.6300 c3         1 OTC       0.141600
     12 C42         -5.0860    -0.0870     1.7870 c3         1 OTC       0.141600
     13 C4A         -1.2510     0.3340     1.4930 c6         1 OTC      -0.113700
     14 C5          -0.3000     1.3860     0.8280 c6         1 OTC       0.174300
     15 O5          -0.3950     2.6150     1.5670 oh         1 OTC      -0.657000
     16 C5A          1.2090     0.9360     0.7190 c6         1 OTC      -0.001500
     17 C6           1.9070     1.3910    -0.6130 c6         1 OTC       0.233300
     18 O6           1.2360     0.7850    -1.7200 oh         1 OTC      -0.643000
     19 C61          1.7950     2.9410    -0.8020 c3         1 OTC      -0.119100
     20 C6A          3.3970     0.9200    -0.6460 ca         1 OTC      -0.032300
     21 C7           4.3380     1.5750    -1.4810 ca         1 OTC      -0.172000
     22 C8           5.6810     1.1780    -1.5200 ca         1 OTC      -0.046000
     23 C9           6.1120     0.1060    -0.7350 ca         1 OTC      -0.173000
     24 C10          5.2030    -0.5810     0.0740 ca         1 OTC       0.219100
     25 O10          5.6700    -1.6330     0.7990 oh         1 OTC      -0.554100
     26 C6B          3.8390    -0.1970     0.1260 ca         1 OTC      -0.268600
     27 C11          2.8580    -0.9780     0.9690 c          1 OTC       0.630900
     28 O11          3.2280    -1.9560     1.6100 o          1 OTC      -0.572100
     29 C5B          1.4270    -0.5730     0.9160 ce         1 OTC      -0.285400
     30 C12          0.4050    -1.4580     0.9190 c2         1 OTC       0.212900
     31 O12          0.5330    -2.7790     1.0950 oh         1 OTC      -0.469100
     32 C4B         -1.0670    -1.0630     0.8420 c6         1 OTC       0.084200
     33 O13         -1.8300    -2.0290     1.6180 oh         1 OTC      -0.703000
     34 H211        -3.0040     2.1660    -2.4360 hn         1 OTC       0.304500
     35 H212        -3.3160     1.4660    -4.0060 hn         1 OTC       0.304500
     36 H3          -4.3760     1.5940    -1.3010 ho         1 OTC       0.502000
     37 H4          -2.8570     1.7690     1.7610 h1         1 OTC       0.084700
     38 H4A         -0.9660     0.2670     2.5510 hc         1 OTC       0.078700
     39 H411        -3.7140     0.9960     3.9490 h1         1 OTC       0.047033
     40 H412        -4.1680    -0.7070     4.1630 h1         1 OTC       0.047033
     41 H413        -2.4710    -0.2770     3.9590 h1         1 OTC       0.047033
     42 H421        -5.2460    -0.3740     0.7400 h1         1 OTC       0.047033
     43 H422        -5.6890    -0.7680     2.4030 h1         1 OTC       0.047033
     44 H423        -5.4670     0.9320     1.9320 h1         1 OTC       0.047033
     45 H5          -0.6520     1.5630    -0.1970 h1         1 OTC       0.092700
     46 HA          -0.0390     2.4440     2.4660 ho         1 OTC       0.443000
     47 H5A          1.7520     1.4210     1.5430 hc         1 OTC       0.057700
     48 H6           1.8750     0.7980    -2.4640 ho         1 OTC       0.446000
     49 H611         2.3850     3.4730    -0.0470 hc         1 OTC       0.047700
     50 H612         2.1340     3.2700    -1.7900 hc         1 OTC       0.047700
     51 H613         0.7630     3.2990    -0.7270 hc         1 OTC       0.047700
     52 H7           4.0490     2.4030    -2.1190 ha         1 OTC       0.114000
     53 H8           6.3860     1.7020    -2.1630 ha         1 OTC       0.113000
     54 H9           7.1530    -0.2030    -0.7650 ha         1 OTC       0.132000
     55 H10          4.8810    -2.0050     1.2730 ho         1 OTC       0.523000
     56 H12         -0.3940    -3.0420     1.3220 ho         1 OTC       0.501000
     57 H13         -2.6460    -1.5130     1.9030 ho         1 OTC       0.519000
@<TRIPOS>BOND
     1     1     2 2   
     2     1     3 1   
     3     1    32 1   
     4     3     5 1   
     5     3     7 2   
     6     4     5 2   
     7     5     6 1   
     8     6    34 1   
     9     6    35 1   
    10     7     8 1   
    11     7     9 1   
    12     8    36 1   
    13     9    10 1   
    14     9    13 1   
    15     9    37 1   
    16    10    11 1   
    17    10    12 1   
    18    11    39 1   
    19    11    40 1   
    20    11    41 1   
    21    12    42 1   
    22    12    43 1   
    23    12    44 1   
    24    13    14 1   
    25    13    32 1   
    26    13    38 1   
    27    14    15 1   
    28    14    16 1   
    29    14    45 1   
    30    15    46 1   
    31    16    17 1   
    32    16    29 1   
    33    16    47 1   
    34    17    18 1   
    35    17    19 1   
    36    17    20 1   
    37    18    48 1   
    38    19    49 1   
    39    19    50 1   
    40    19    51 1   
    41    20    21 ar  
    42    20    26 ar  
    43    21    22 ar  
    44    21    52 1   
    45    22    23 ar  
    46    22    53 1   
    47    23    24 ar  
    48    23    54 1   
    49    24    25 1   
    50    24    26 ar  
    51    25    55 1   
    52    26    27 1   
    53    27    28 2   
    54    27    29 1   
    55    29    30 2   
    56    30    31 1   
    57    30    32 1   
    58    31    56 1   
    59    32    33 1   
    60    33    57 1   
@<TRIPOS>SUBSTRUCTURE
     1 OTC         1 TEMP              0 ****  ****    0 ROOT
