@<TRIPOS>MOLECULE
OTC
   57    60     1     0     0
SMALL
abcg2


@<TRIPOS>ATOM
      1 C1          -1.6880    -0.9840    -0.7850 c          1 OTC       0.594300
      2 O1          -1.2440    -1.7090    -1.6490 o          1 OTC      -0.468100
      3 C2          -2.8110    -0.0850    -1.0190 ce         1 OTC      -0.395400
      4 O21         -3.9690    -1.2680    -2.7160 o          1 OTC      -0.539100
      5 C21         -3.5300    -0.2070    -2.3230 c          1 OTC       0.614300
      6 N21         -3.7350     0.9720    -2.9660 nt         1 OTC      -0.615000
      7 C3          -3.2050     0.8120    -0.0760 c2         1 OTC       0.197900
      8 O3          -4.1490     1.7190    -0.2430 oh         1 OTC      -0.527100
      9 C4          -2.6150     0.8550     1.3110 c6         1 OTC       0.207700
     10 N4          -3.3740    -0.0010     2.2550 n3         1 OTC      -0.735600
     11 C41         -3.1550     0.4390     3.6270 c3         1 OTC       0.141600
     12 C42         -4.8040    -0.1400     2.0030 c3         1 OTC       0.141600
     13 C4A         -1.1600     0.3680     1.2730 c6         1 OTC      -0.113700
     14 C5          -0.2330     1.3280     0.5220 c6         1 OTC       0.174300
     15 O5          -0.3170     2.6150     1.0850 oh         1 OTC      -0.657000
     16 C5A          1.2170     0.8190     0.4890 c6         1 OTC      -0.001500
     17 C6           2.0340     1.3810    -0.6930 c6         1 OTC       0.233300
     18 O6           1.5790     0.6780    -1.8350 oh         1 OTC      -0.643000
     19 C61          1.8490     2.8800    -0.9010 c3         1 OTC      -0.119100
     20 C6A          3.4980     1.0210    -0.4340 ca         1 OTC      -0.032300
     21 C7           4.5360     1.8880    -0.7180 ca         1 OTC      -0.172000
     22 C8           5.8590     1.4910    -0.5230 ca         1 OTC      -0.046000
     23 C9           6.1660     0.2280    -0.0680 ca         1 OTC      -0.173000
     24 C10          5.1340    -0.6710     0.2130 ca         1 OTC       0.219100
     25 O10          5.4630    -1.8900     0.6280 oh         1 OTC      -0.554100
     26 C6B          3.7910    -0.2660     0.0550 ca         1 OTC      -0.268600
     27 C11          2.7200    -1.2080     0.4140 c          1 OTC       0.630900
     28 O11          3.0020    -2.3900     0.6550 o          1 OTC      -0.572100
     29 C5B          1.3630    -0.6900     0.4960 ce         1 OTC      -0.285400
     30 C12          0.3070    -1.5250     0.6130 c2         1 OTC       0.212900
     31 O12          0.4150    -2.8390     0.6900 oh         1 OTC      -0.469100
     32 C4B         -1.1130    -1.0120     0.6400 c6         1 OTC       0.084200
     33 O13         -1.8950    -1.9580     1.3270 oh         1 OTC      -0.703000
     34 H211        -3.0640     1.7180    -2.8530 hn         1 OTC       0.304500
     35 H212        -4.1880     0.9450    -3.8680 hn         1 OTC       0.304500
     36 H3          -4.5220     1.6930    -1.1430 ho         1 OTC       0.502000
     37 H4          -2.6500     1.9010     1.6390 h1         1 OTC       0.084700
     38 H4A         -0.7880     0.2780     2.2990 hc         1 OTC       0.078700
     39 H411        -3.6000     1.4220     3.8180 h1         1 OTC       0.047033
     40 H412        -3.6030    -0.2820     4.3100 h1         1 OTC       0.047033
     41 H413        -2.0930     0.4960     3.8580 h1         1 OTC       0.047033
     42 H421        -4.9930    -0.5840     1.0270 h1         1 OTC       0.047033
     43 H422        -5.2090    -0.8250     2.7470 h1         1 OTC       0.047033
     44 H423        -5.3530     0.8040     2.0770 h1         1 OTC       0.047033
     45 H5          -0.5900     1.4410    -0.5060 h1         1 OTC       0.092700
     46 HA           0.0900     2.5980     1.9590 ho         1 OTC       0.443000
     47 H5A          1.6970     1.1890     1.4070 hc         1 OTC       0.057700
     48 H6           1.9970     1.0600    -2.6140 ho         1 OTC       0.446000
     49 H611         2.1560     3.4590    -0.0320 hc         1 OTC       0.047700
     50 H612         2.4360     3.2210    -1.7560 hc         1 OTC       0.047700
     51 H613         0.8110     3.1170    -1.1210 hc         1 OTC       0.047700
     52 H7           4.3460     2.8850    -1.0870 ha         1 OTC       0.114000
     53 H8           6.6600     2.1850    -0.7410 ha         1 OTC       0.113000
     54 H9           7.1940    -0.0830     0.0690 ha         1 OTC       0.132000
     55 H10          4.6130    -2.3930     0.7190 ho         1 OTC       0.523000
     56 H12         -0.4600    -3.1990     0.9120 ho         1 OTC       0.501000
     57 H13         -2.5710    -1.4340     1.8480 ho         1 OTC       0.519000
@<TRIPOS>BOND
     1     1     2 2   
     2     1     3 1   
     3     1    32 1   
     4     3     5 1   
     5     3     7 2   
     6     4     5 2   
     7     5     6 1   
     8     6    34 1   
     9     6    35 1   
    10     7     8 1   
    11     7     9 1   
    12     8    36 1   
    13     9    10 1   
    14     9    13 1   
    15     9    37 1   
    16    10    11 1   
    17    10    12 1   
    18    11    39 1   
    19    11    40 1   
    20    11    41 1   
    21    12    42 1   
    22    12    43 1   
    23    12    44 1   
    24    13    14 1   
    25    13    32 1   
    26    13    38 1   
    27    14    15 1   
    28    14    16 1   
    29    14    45 1   
    30    15    46 1   
    31    16    17 1   
    32    16    29 1   
    33    16    47 1   
    34    17    18 1   
    35    17    19 1   
    36    17    20 1   
    37    18    48 1   
    38    19    49 1   
    39    19    50 1   
    40    19    51 1   
    41    20    21 ar  
    42    20    26 ar  
    43    21    22 ar  
    44    21    52 1   
    45    22    23 ar  
    46    22    53 1   
    47    23    24 ar  
    48    23    54 1   
    49    24    25 1   
    50    24    26 ar  
    51    25    55 1   
    52    26    27 1   
    53    27    28 2   
    54    27    29 1   
    55    29    30 2   
    56    30    31 1   
    57    30    32 1   
    58    31    56 1   
    59    32    33 1   
    60    33    57 1   
@<TRIPOS>SUBSTRUCTURE
     1 OTC         1 TEMP              0 ****  ****    0 ROOT
