@<TRIPOS>MOLECULE
OTD
   17    17     1     0     0
SMALL
bcc


@<TRIPOS>ATOM
      1 N1           3.8050    -2.9140     0.4150 ns         1 OTD      -0.535900
      2 N3           1.5740    -2.8940     0.9410 ns         1 OTD      -0.463100
      3 C4           1.4310    -1.6360     0.3620 ce         1 OTD      -0.074600
      4 C5           2.4070    -1.1410    -0.3970 c2         1 OTD      -0.217200
      5 C6           3.6320    -1.9590    -0.6650 c6         1 OTD       0.000900
      6 C61          3.5110    -2.6130    -2.0690 c          1 OTD       0.918600
      7 O62          3.5390    -1.8070    -3.0200 o          1 OTD      -0.844800
      8 C41          0.1190    -0.9250     0.6510 c          1 OTD       0.933800
      9 O42         -0.6840    -1.5560     1.3690 o          1 OTD      -0.847300
     10 O41         -0.0340     0.2000     0.1500 o          1 OTD      -0.847300
     11 C2           2.7720    -3.5390     1.0310 c          1 OTD       0.817500
     12 O2           2.9040    -4.5790     1.6720 o          1 OTD      -0.775500
     13 HN1          4.6450    -3.4700     0.3740 hn         1 OTD       0.279500
     14 HN3          0.8120    -3.2170     1.5180 hn         1 OTD       0.331500
     15 H5           2.3050    -0.1690    -0.8530 ha         1 OTD       0.146000
     16 H6           4.5100    -1.3060    -0.6730 h1         1 OTD       0.023700
     17 O61          3.3800    -3.8460    -2.1160 o          1 OTD      -0.844800
@<TRIPOS>BOND
     1     1     5 1   
     2     1    11 1   
     3     1    13 1   
     4     2     3 1   
     5     2    11 1   
     6     2    14 1   
     7     3     4 2   
     8     3     8 1   
     9     4     5 1   
    10     4    15 1   
    11     5     6 1   
    12     5    16 1   
    13     6     7 1   
    14     6    17 1   
    15     8     9 1   
    16     8    10 1   
    17    11    12 2   
@<TRIPOS>SUBSTRUCTURE
     1 OTD         1 TEMP              0 ****  ****    0 ROOT
