@<TRIPOS>MOLECULE
OTD
   17    17     1     0     0
SMALL
No Charge or Current Charge


@<TRIPOS>ATOM
      1 N1           3.6720    -3.1730     0.2050 ns         1 OTD      -0.468900
      2 N3           1.6590    -2.7460     1.2560 ns         1 OTD      -0.396100
      3 C4           1.3490    -1.6490     0.4300 ce         1 OTD      -0.074600
      4 C5           2.2200    -1.2830    -0.5360 c2         1 OTD      -0.267200
      5 C6           3.5460    -2.0250    -0.7440 c6         1 OTD       0.000900
      6 C61          3.8040    -2.4350    -2.2410 c          1 OTD       0.708000
      7 O62          4.7280    -1.8950    -2.8360 o          1 OTD      -0.739500
      8 C41          0.0130    -0.9670     0.7180 c          1 OTD       0.723200
      9 O42         -0.6830    -1.4050     1.6260 o          1 OTD      -0.742000
     10 O41         -0.3190    -0.0070     0.0360 o          1 OTD      -0.742000
     11 C2           2.7740    -3.5310     1.1870 c          1 OTD       0.608000
     12 O2           2.9610    -4.4760     1.9330 o          1 OTD      -0.700000
     13 HN1          4.4920    -3.7620     0.1310 hn         1 OTD       0.279500
     14 HN3          0.9670    -2.9720     1.9600 hn         1 OTD       0.331500
     15 H5           2.0130    -0.4410    -1.2000 ha         1 OTD       0.196000
     16 H6           4.3520    -1.3250    -0.4810 h1         1 OTD       0.023700
     17 O61          3.0800    -3.2800    -2.7540 o          1 OTD      -0.739500
@<TRIPOS>BOND
     1     1     5 1   
     2     1    11 1   
     3     1    13 1   
     4     2     3 1   
     5     2    11 1   
     6     2    14 1   
     7     3     4 2   
     8     3     8 1   
     9     4     5 1   
    10     4    15 1   
    11     5     6 1   
    12     5    16 1   
    13     6     7 1   
    14     6    17 1   
    15     8     9 1   
    16     8    10 1   
    17    11    12 2   
@<TRIPOS>SUBSTRUCTURE
     1 OTD         1 TEMP              0 ****  ****    0 ROOT
