@<TRIPOS>MOLECULE
OTE
   55    54     1     0     0
SMALL
No Charge or Current Charge


@<TRIPOS>ATOM
      1 C1          -1.7750    -1.2730    10.6970 c3         1 OTE      -0.088100
      2 C2          -1.6030    -0.1980     9.6060 c3         1 OTE      -0.075400
      3 C3          -0.9100    -0.7330     8.3340 c3         1 OTE      -0.075400
      4 C4          -0.7370     0.3440     7.2410 c3         1 OTE      -0.075400
      5 C5          -0.0440    -0.1910     5.9690 c3         1 OTE      -0.073400
      6 C6           0.1290     0.8870     4.8760 c3         1 OTE      -0.074400
      7 C7           0.8230     0.3520     3.6040 c3         1 OTE      -0.079400
      8 C8           0.9930     1.4300     2.5160 c3         1 OTE       0.162600
      9 O9           1.6440     0.8170     1.3920 os         1 OTE      -0.450000
     10 C10          1.8760     1.7060     0.2800 c3         1 OTE       0.163600
     11 C11          2.5690     0.9210    -0.8600 c3         1 OTE       0.162600
     12 O12          1.6160     0.0220    -1.4610 os         1 OTE      -0.437000
     13 C13          2.1470    -0.7800    -2.5350 c3         1 OTE       0.162600
     14 C14          1.0230    -1.6850    -3.0940 c3         1 OTE       0.161600
     15 O15          0.0880    -0.8730    -3.8330 os         1 OTE      -0.438000
     16 C16         -1.0200    -1.6030    -4.3970 c3         1 OTE       0.162600
     17 C17         -1.9340    -0.6190    -5.1670 c3         1 OTE       0.162600
     18 O18         -1.2710    -0.2090    -6.3800 os         1 OTE      -0.435000
     19 C19         -2.0220     0.7250    -7.1830 c3         1 OTE       0.160600
     20 C20         -1.2070     1.0770    -8.4570 c3         1 OTE       0.163600
     21 O21         -1.0950    -0.0520    -9.3470 oh         1 OTE      -0.710000
     22 H11         -0.8010    -1.6690    11.0090 hc         1 OTE       0.031367
     23 H12         -2.2710    -0.8470    11.5780 hc         1 OTE       0.031367
     24 H13         -2.3860    -2.1060    10.3280 hc         1 OTE       0.031367
     25 H21A        -2.5900     0.2020     9.3420 hc         1 OTE       0.036700
     26 H22         -1.0190     0.6350    10.0160 hc         1 OTE       0.036700
     27 H31          0.0760    -1.1350     8.6030 hc         1 OTE       0.037700
     28 H32         -1.4960    -1.5680     7.9280 hc         1 OTE       0.037700
     29 H41         -1.7220     0.7450     6.9720 hc         1 OTE       0.036700
     30 H42         -0.1510     1.1780     7.6470 hc         1 OTE       0.036700
     31 H51          0.9420    -0.5930     6.2380 hc         1 OTE       0.039200
     32 H52         -0.6300    -1.0250     5.5630 hc         1 OTE       0.039200
     33 H61         -0.8560     1.2880     4.6070 hc         1 OTE       0.036700
     34 H62          0.7150     1.7210     5.2820 hc         1 OTE       0.036700
     35 H71          1.8090    -0.0460     3.8690 hc         1 OTE       0.052700
     36 H72          0.2360    -0.4790     3.1940 hc         1 OTE       0.052700
     37 H81          0.0090     1.8210     2.2270 h1         1 OTE       0.018200
     38 H82          1.5970     2.2580     2.9090 h1         1 OTE       0.018200
     39 H101         0.9330     2.1310    -0.0880 h1         1 OTE       0.028700
     40 H102         2.5270     2.5340     0.5860 h1         1 OTE       0.028700
     41 H111         2.9390     1.6360    -1.6070 h1         1 OTE       0.028200
     42 H112         3.4300     0.3720    -0.4570 h1         1 OTE       0.028200
     43 H131         2.5440    -0.1470    -3.3410 h1         1 OTE       0.028700
     44 H132         2.9630    -1.4150    -2.1670 h1         1 OTE       0.028700
     45 H141         1.4720    -2.4410    -3.7520 h1         1 OTE       0.029200
     46 H142         0.5250    -2.2050    -2.2650 h1         1 OTE       0.029200
     47 H161        -0.6690    -2.3880    -5.0790 h1         1 OTE       0.028700
     48 H162        -1.6050    -2.0800    -3.6000 h1         1 OTE       0.028700
     49 H171        -2.8790    -1.1260    -5.4040 h1         1 OTE       0.027700
     50 H172        -2.1620     0.2450    -4.5290 h1         1 OTE       0.027700
     51 H191        -2.9920     0.3010    -7.4740 h1         1 OTE       0.026200
     52 H192        -2.2100     1.6470    -6.6170 h1         1 OTE       0.026200
     53 H201        -1.7080     1.9080    -8.9700 h1         1 OTE       0.025200
     54 H202        -0.2110     1.4300    -8.1560 h1         1 OTE       0.025200
     55 H21         -0.5170     0.2300   -10.0940 ho         1 OTE       0.499000
@<TRIPOS>BOND
     1     1     2 1   
     2     1    22 1   
     3     1    23 1   
     4     1    24 1   
     5     2     3 1   
     6     2    25 1   
     7     2    26 1   
     8     3     4 1   
     9     3    27 1   
    10     3    28 1   
    11     4     5 1   
    12     4    29 1   
    13     4    30 1   
    14     5     6 1   
    15     5    31 1   
    16     5    32 1   
    17     6     7 1   
    18     6    33 1   
    19     6    34 1   
    20     7     8 1   
    21     7    35 1   
    22     7    36 1   
    23     8     9 1   
    24     8    37 1   
    25     8    38 1   
    26     9    10 1   
    27    10    11 1   
    28    10    39 1   
    29    10    40 1   
    30    11    12 1   
    31    11    41 1   
    32    11    42 1   
    33    12    13 1   
    34    13    14 1   
    35    13    43 1   
    36    13    44 1   
    37    14    15 1   
    38    14    45 1   
    39    14    46 1   
    40    15    16 1   
    41    16    17 1   
    42    16    47 1   
    43    16    48 1   
    44    17    18 1   
    45    17    49 1   
    46    17    50 1   
    47    18    19 1   
    48    19    20 1   
    49    19    51 1   
    50    19    52 1   
    51    20    21 1   
    52    20    53 1   
    53    20    54 1   
    54    21    55 1   
@<TRIPOS>SUBSTRUCTURE
     1 OTE         1 TEMP              0 ****  ****    0 ROOT
