@<TRIPOS>MOLECULE
OTE
   55    54     1     0     0
SMALL
abcg2


@<TRIPOS>ATOM
      1 C1          -1.6190    -0.9390    10.7090 c3         1 OTE      -0.088100
      2 C2          -1.5350     0.0300     9.5380 c3         1 OTE      -0.075400
      3 C3          -0.8260    -0.5660     8.3270 c3         1 OTE      -0.075400
      4 C4          -0.7380     0.3940     7.1480 c3         1 OTE      -0.075400
      5 C5          -0.0370    -0.2060     5.9350 c3         1 OTE      -0.073400
      6 C6           0.0560     0.7620     4.7630 c3         1 OTE      -0.074400
      7 C7           0.7490     0.1630     3.5440 c3         1 OTE      -0.079400
      8 C8           0.8360     1.1590     2.4060 c3         1 OTE       0.162600
      9 O9           1.4780     0.5670     1.3010 os         1 OTE      -0.450000
     10 C10          1.6620     1.4640     0.2370 c3         1 OTE       0.163600
     11 C11          2.3400     0.7680    -0.9140 c3         1 OTE       0.162600
     12 O12          1.4680    -0.1780    -1.4810 os         1 OTE      -0.437000
     13 C13          2.0650    -0.9120    -2.5180 c3         1 OTE       0.162600
     14 C14          1.0390    -1.7910    -3.1840 c3         1 OTE       0.161600
     15 O15          0.0940    -0.9950    -3.8530 os         1 OTE      -0.438000
     16 C16         -0.8600    -1.7530    -4.5510 c3         1 OTE       0.162600
     17 C17         -1.8170    -0.8370    -5.2680 c3         1 OTE       0.162600
     18 O18         -1.1310    -0.1100    -6.2540 os         1 OTE      -0.435000
     19 C19         -1.9710     0.7520    -6.9790 c3         1 OTE       0.160600
     20 C20         -1.1670     1.5180    -7.9980 c3         1 OTE       0.163600
     21 O21         -0.6620     0.6260    -8.9670 oh         1 OTE      -0.710000
     22 H11         -0.6250    -1.2350    11.0490 hc         1 OTE       0.031367
     23 H12         -2.1420    -0.5010    11.5590 hc         1 OTE       0.031367
     24 H13         -2.1530    -1.8490    10.4270 hc         1 OTE       0.031367
     25 H21A        -2.5430     0.3420     9.2480 hc         1 OTE       0.036700
     26 H22         -1.0140     0.9410     9.8490 hc         1 OTE       0.036700
     27 H31          0.1830    -0.8790     8.6180 hc         1 OTE       0.037700
     28 H32         -1.3470    -1.4780     8.0160 hc         1 OTE       0.037700
     29 H41         -1.7470     0.7100     6.8620 hc         1 OTE       0.036700
     30 H42         -0.2110     1.3040     7.4570 hc         1 OTE       0.036700
     31 H51          0.9690    -0.5300     6.2200 hc         1 OTE       0.039200
     32 H52         -0.5700    -1.1100     5.6190 hc         1 OTE       0.039200
     33 H61         -0.9510     1.0900     4.4840 hc         1 OTE       0.036700
     34 H62          0.5920     1.6640     5.0800 hc         1 OTE       0.036700
     35 H71          1.7560    -0.1650     3.8200 hc         1 OTE       0.052700
     36 H72          0.2030    -0.7270     3.2140 hc         1 OTE       0.052700
     37 H81         -0.1720     1.4990     2.1260 h1         1 OTE       0.018200
     38 H82          1.3880     2.0520     2.7370 h1         1 OTE       0.018200
     39 H101         0.7020     1.8860    -0.0970 h1         1 OTE       0.028700
     40 H102         2.2890     2.3130     0.5420 h1         1 OTE       0.028700
     41 H111         2.6270     1.5290    -1.6530 h1         1 OTE       0.028200
     42 H112         3.2700     0.2930    -0.5690 h1         1 OTE       0.028200
     43 H131         2.5200    -0.2450    -3.2650 h1         1 OTE       0.028700
     44 H132         2.8720    -1.5520    -2.1340 h1         1 OTE       0.028700
     45 H141         1.5650    -2.4530    -3.8870 h1         1 OTE       0.029200
     46 H142         0.5540    -2.4400    -2.4410 h1         1 OTE       0.029200
     47 H161        -0.3740    -2.4260    -5.2730 h1         1 OTE       0.028700
     48 H162        -1.4420    -2.3880    -3.8680 h1         1 OTE       0.028700
     49 H171        -2.6120    -1.4550    -5.7110 h1         1 OTE       0.027700
     50 H172        -2.3050    -0.1640    -4.5480 h1         1 OTE       0.027700
     51 H191        -2.7730     0.1890    -7.4810 h1         1 OTE       0.026200
     52 H192        -2.4620     1.4770    -6.3150 h1         1 OTE       0.026200
     53 H201        -1.8310     2.2710    -8.4410 h1         1 OTE       0.025200
     54 H202        -0.3620     2.0640    -7.4880 h1         1 OTE       0.025200
     55 H21         -0.1430     1.1330    -9.5970 ho         1 OTE       0.499000
@<TRIPOS>BOND
     1     1     2 1   
     2     1    22 1   
     3     1    23 1   
     4     1    24 1   
     5     2     3 1   
     6     2    25 1   
     7     2    26 1   
     8     3     4 1   
     9     3    27 1   
    10     3    28 1   
    11     4     5 1   
    12     4    29 1   
    13     4    30 1   
    14     5     6 1   
    15     5    31 1   
    16     5    32 1   
    17     6     7 1   
    18     6    33 1   
    19     6    34 1   
    20     7     8 1   
    21     7    35 1   
    22     7    36 1   
    23     8     9 1   
    24     8    37 1   
    25     8    38 1   
    26     9    10 1   
    27    10    11 1   
    28    10    39 1   
    29    10    40 1   
    30    11    12 1   
    31    11    41 1   
    32    11    42 1   
    33    12    13 1   
    34    13    14 1   
    35    13    43 1   
    36    13    44 1   
    37    14    15 1   
    38    14    45 1   
    39    14    46 1   
    40    15    16 1   
    41    16    17 1   
    42    16    47 1   
    43    16    48 1   
    44    17    18 1   
    45    17    49 1   
    46    17    50 1   
    47    18    19 1   
    48    19    20 1   
    49    19    51 1   
    50    19    52 1   
    51    20    21 1   
    52    20    53 1   
    53    20    54 1   
    54    21    55 1   
@<TRIPOS>SUBSTRUCTURE
     1 OTE         1 TEMP              0 ****  ****    0 ROOT
