@<TRIPOS>MOLECULE
OTF
   42    45     1     0     0
SMALL
No Charge or Current Charge


@<TRIPOS>ATOM
      1 C1           3.4220    -1.7010     0.6940 c          1 OTF       0.623100
      2 C2           2.2170    -1.1680    -0.0810 cx         1 OTF       0.041000
      3 C3           1.3900    -0.0540     0.5360 cx         1 OTF      -0.056400
      4 C4           2.2850     0.2370    -0.6490 cx         1 OTF      -0.045400
      5 F5           1.5720    -2.1190    -0.8260 f          1 OTF      -0.227000
      6 O6           3.5830    -1.5230     1.8970 o          1 OTF      -0.552100
      7 N7           4.3180    -2.4390    -0.0750 ns         1 OTF      -0.378400
      8 O8           5.6330    -2.7860     0.4310 oh         1 OTF      -0.420100
      9 C9           3.5140     1.0980    -0.5320 ca         1 OTF      -0.060300
     10 C10          4.6630     0.7860    -1.2840 ca         1 OTF      -0.090000
     11 C11          5.8150     1.5850    -1.1850 ca         1 OTF      -0.106500
     12 C12          5.8230     2.7070    -0.3390 ca         1 OTF      -0.101000
     13 C13          4.6760     3.0310     0.4040 ca         1 OTF      -0.106500
     14 C14          3.5240     2.2320     0.3050 ca         1 OTF      -0.090000
     15 C15         -0.1070    -0.0010     0.4190 ca         1 OTF      -0.038300
     16 C16         -0.8960    -1.0570     0.9050 ca         1 OTF      -0.110500
     17 C17         -2.2960    -1.0060     0.8040 ca         1 OTF      -0.065000
     18 C18         -2.9580     0.1090     0.2170 cp         1 OTF      -0.148500
     19 C19         -2.1370     1.1690    -0.2610 ca         1 OTF      -0.065000
     20 C20         -0.7360     1.1140    -0.1590 ca         1 OTF      -0.110500
     21 C21         -4.4620     0.1650     0.1070 cp         1 OTF       0.186500
     22 N22         -5.0140     1.2620    -0.4650 nb         1 OTF      -0.160000
     23 C23         -6.3590     1.3160    -0.5650 ca         1 OTF       0.084900
     24 C24         -7.1620     0.2670    -0.0900 ca         1 OTF       0.055000
     25 C25         -6.5170    -0.8370     0.4910 ca         1 OTF       0.084900
     26 N26         -5.1720    -0.8840     0.5870 nb         1 OTF      -0.160000
     27 F27         -8.5100     0.3180    -0.1880 f          1 OTF      -0.156000
     28 H7           4.1990    -2.4610    -1.0870 hn         1 OTF       0.352500
     29 H3           1.7220     0.3140     1.5040 hc         1 OTF       0.115700
     30 H4           1.7870     0.3860    -1.6050 hc         1 OTF       0.099700
     31 H8           5.7000    -3.7550     0.2590 ho         1 OTF       0.447000
     32 H10          4.6650    -0.0750    -1.9480 ha         1 OTF       0.112000
     33 H14          2.6390     2.5000     0.8790 ha         1 OTF       0.112000
     34 H11          6.7010     1.3360    -1.7660 ha         1 OTF       0.114000
     35 H12          6.7150     3.3260    -0.2630 ha         1 OTF       0.113000
     36 H13          4.6780     3.9030     1.0540 ha         1 OTF       0.114000
     37 H16         -0.4220    -1.9230     1.3610 ha         1 OTF       0.118000
     38 H20         -0.1400     1.9440    -0.5300 ha         1 OTF       0.118000
     39 H17         -2.8670    -1.8470     1.1910 ha         1 OTF       0.136000
     40 H19         -2.5820     2.0500    -0.7180 ha         1 OTF       0.136000
     41 H23         -6.7900     2.2030    -1.0270 h4         1 OTF       0.042100
     42 H25         -7.0750    -1.6860     0.8800 h4         1 OTF       0.042100
@<TRIPOS>BOND
     1     1     2 1   
     2     1     6 2   
     3     1     7 1   
     4     2     3 1   
     5     2     4 1   
     6     2     5 1   
     7     3     4 1   
     8     3    15 1   
     9     3    29 1   
    10     4     9 1   
    11     4    30 1   
    12     7     8 1   
    13     7    28 1   
    14     8    31 1   
    15     9    10 ar  
    16     9    14 ar  
    17    10    11 ar  
    18    10    32 1   
    19    11    12 ar  
    20    11    34 1   
    21    12    13 ar  
    22    12    35 1   
    23    13    14 ar  
    24    13    36 1   
    25    14    33 1   
    26    15    16 ar  
    27    15    20 ar  
    28    16    17 ar  
    29    16    37 1   
    30    17    18 ar  
    31    17    39 1   
    32    18    19 ar  
    33    18    21 1   
    34    19    20 ar  
    35    19    40 1   
    36    20    38 1   
    37    21    22 ar  
    38    21    26 ar  
    39    22    23 ar  
    40    23    24 ar  
    41    23    41 1   
    42    24    25 ar  
    43    24    27 1   
    44    25    26 ar  
    45    25    42 1   
@<TRIPOS>SUBSTRUCTURE
     1 OTF         1 TEMP              0 ****  ****    0 ROOT
