@<TRIPOS>MOLECULE
OTF
   42    45     1     0     0
SMALL
bcc


@<TRIPOS>ATOM
      1 C1           3.3420    -1.6890     0.0090 c          1 OTF       0.690100
      2 C2           2.2390    -0.8480    -0.5500 cx         1 OTF       0.022300
      3 C3           1.4480     0.0460     0.3640 cx         1 OTF      -0.056400
      4 C4           2.3710     0.6370    -0.6580 cx         1 OTF      -0.045400
      5 F5           1.5450    -1.4530    -1.5640 f          1 OTF      -0.208300
      6 O6           3.9390    -1.3560     1.0140 o          1 OTF      -0.552100
      7 N7           3.5800    -2.8150    -0.6830 ns         1 OTF      -0.445400
      8 O8           4.6680    -3.5680    -0.3640 oh         1 OTF      -0.381100
      9 C9           3.6140     1.3660    -0.2830 ca         1 OTF      -0.060300
     10 C10          4.7450     1.2580    -1.0890 ca         1 OTF      -0.108000
     11 C11          5.8980     1.9650    -0.7840 ca         1 OTF      -0.124500
     12 C12          5.9320     2.7970     0.3290 ca         1 OTF      -0.119000
     13 C13          4.8060     2.9130     1.1330 ca         1 OTF      -0.124500
     14 C14          3.6530     2.2010     0.8260 ca         1 OTF      -0.108000
     15 C15         -0.0320     0.0910     0.2630 ca         1 OTF      -0.038300
     16 C16         -0.7830    -0.4210     1.3210 ca         1 OTF      -0.128500
     17 C17         -2.1650    -0.4300     1.2790 ca         1 OTF      -0.083000
     18 C18         -2.8440     0.0740     0.1700 cp         1 OTF      -0.148500
     19 C19         -2.0960     0.5940    -0.8850 ca         1 OTF      -0.083000
     20 C20         -0.7120     0.6010    -0.8390 ca         1 OTF      -0.128500
     21 C21         -4.3190     0.0580     0.1130 cp         1 OTF       0.712500
     22 N22         -4.9030     0.5630    -0.9700 nb         1 OTF      -0.686000
     23 C23         -6.2230     0.5440    -1.0320 ca         1 OTF       0.413200
     24 C24         -6.9660     0.0140     0.0040 ca         1 OTF      -0.110700
     25 C25         -6.2950    -0.4910     1.0990 ca         1 OTF       0.413200
     26 N26         -4.9740    -0.4650     1.1470 nb         1 OTF      -0.686000
     27 F27         -8.2970    -0.0120    -0.0540 f          1 OTF      -0.120900
     28 H7           3.1820    -3.0060    -1.5910 hn         1 OTF       0.352500
     29 H3           1.8210     0.0460     1.3840 hc         1 OTF       0.115700
     30 H4           1.8910     1.0240    -1.5540 hc         1 OTF       0.099700
     31 H8           4.3400    -4.3000     0.1750 ho         1 OTF       0.408000
     32 H10          4.7260     0.6110    -1.9590 ha         1 OTF       0.130000
     33 H14          2.7780     2.2980     1.4570 ha         1 OTF       0.130000
     34 H11          6.7720     1.8670    -1.4150 ha         1 OTF       0.132000
     35 H12          6.8300     3.3520     0.5670 ha         1 OTF       0.131000
     36 H13          4.8220     3.5610     2.0000 ha         1 OTF       0.132000
     37 H16         -0.2770    -0.8190     2.1920 ha         1 OTF       0.136000
     38 H20         -0.1720     1.0260    -1.6750 ha         1 OTF       0.136000
     39 H17         -2.7200    -0.8350     2.1140 ha         1 OTF       0.154000
     40 H19         -2.5990     0.9970    -1.7530 ha         1 OTF       0.154000
     41 H23         -6.7000     0.9550    -1.9150 h4         1 OTF       0.042100
     42 H25         -6.8280    -0.9180     1.9410 h4         1 OTF       0.042100
@<TRIPOS>BOND
     1     1     2 1   
     2     1     6 2   
     3     1     7 1   
     4     2     3 1   
     5     2     4 1   
     6     2     5 1   
     7     3     4 1   
     8     3    15 1   
     9     3    29 1   
    10     4     9 1   
    11     4    30 1   
    12     7     8 1   
    13     7    28 1   
    14     8    31 1   
    15     9    10 ar  
    16     9    14 ar  
    17    10    11 ar  
    18    10    32 1   
    19    11    12 ar  
    20    11    34 1   
    21    12    13 ar  
    22    12    35 1   
    23    13    14 ar  
    24    13    36 1   
    25    14    33 1   
    26    15    16 ar  
    27    15    20 ar  
    28    16    17 ar  
    29    16    37 1   
    30    17    18 ar  
    31    17    39 1   
    32    18    19 ar  
    33    18    21 1   
    34    19    20 ar  
    35    19    40 1   
    36    20    38 1   
    37    21    22 ar  
    38    21    26 ar  
    39    22    23 ar  
    40    23    24 ar  
    41    23    41 1   
    42    24    25 ar  
    43    24    27 1   
    44    25    26 ar  
    45    25    42 1   
@<TRIPOS>SUBSTRUCTURE
     1 OTF         1 TEMP              0 ****  ****    0 ROOT
