@<TRIPOS>MOLECULE
OTG
   40    41     1     0     0
SMALL
bcc


@<TRIPOS>ATOM
      1 C1           0.7460    -1.3220    -1.5870 c6         1 OTG       0.330900
      2 O1          -0.3180    -2.1940    -1.3740 oh         1 OTG      -0.622800
      3 C2           0.5000    -0.0660    -0.7510 c6         1 OTG       0.090700
      4 N2           0.3090    -0.4050     0.6360 ns         1 OTG      -0.556900
      5 C3          -0.6800     0.7260    -1.3060 c6         1 OTG       0.130100
      6 O3          -0.8040     1.9050    -0.5540 oh         1 OTG      -0.584800
      7 C4          -0.4420     1.0140    -2.7850 c6         1 OTG       0.079100
      8 O4          -1.5910     1.6650    -3.2810 oh         1 OTG      -0.599800
      9 C5          -0.1720    -0.2940    -3.5370 c6         1 OTG       0.122100
     10 O5           0.9120    -0.9850    -2.9340 os         1 OTG      -0.417600
     11 C6           0.2040    -0.0450    -4.9810 c3         1 OTG       0.145400
     12 O6           0.3430    -1.2820    -5.6390 oh         1 OTG      -0.583800
     13 C9          -0.0790     0.7190     3.9130 ca         1 OTG      -0.023300
     14 C10          0.4640    -0.2030     3.0100 ca         1 OTG      -0.151600
     15 C11          0.6380    -1.5340     3.3740 ca         1 OTG      -0.104000
     16 C12          0.2960    -1.9680     4.6470 ca         1 OTG      -0.140000
     17 C13         -0.2410    -1.0640     5.5510 ca         1 OTG      -0.109000
     18 C14         -0.4310     0.2600     5.1800 ca         1 OTG      -0.139000
     19 C8           0.9000     0.2490     1.6520 c          1 OTG       0.688700
     20 O8           1.7390     1.1250     1.5090 o          1 OTG      -0.587100
     21 H1           1.6970    -1.7760    -1.2870 h2         1 OTG       0.078700
     22 HO1         -0.0760    -3.0750    -1.6790 ho         1 OTG       0.423000
     23 H2           1.3980     0.5520    -0.8180 h1         1 OTG       0.104700
     24 HN2         -0.4310    -1.0540     0.8550 hn         1 OTG       0.326500
     25 H3          -1.5930     0.1140    -1.2240 h1         1 OTG       0.057700
     26 HO3         -1.5640     2.3900    -0.8930 ho         1 OTG       0.416000
     27 H4           0.4440     1.6600    -2.8700 h1         1 OTG       0.054700
     28 HO4         -1.3280     2.3150    -3.9380 ho         1 OTG       0.411000
     29 H5          -1.0840    -0.9060    -3.5100 h1         1 OTG       0.074700
     30 H61         -0.5810     0.5660    -5.4400 h1         1 OTG       0.025200
     31 H62          1.1320     0.5430    -5.0130 h1         1 OTG       0.025200
     32 HO6          0.5300    -1.1050    -6.5660 ho         1 OTG       0.405000
     33 H8           1.0570    -2.2360     2.6640 ha         1 OTG       0.133000
     34 H9           0.4450    -3.0020     4.9260 ha         1 OTG       0.133000
     35 H10         -0.5200    -1.3870     6.5460 ha         1 OTG       0.131000
     36 H6          -0.8680     0.9550     5.8870 ha         1 OTG       0.132000
     37 H7'1         0.6190     2.7300     3.5710 hc         1 OTG       0.052700
     38 H7'2        -0.7220     2.2620     2.5410 hc         1 OTG       0.052700
     39 H7'3        -1.0030     2.6240     4.2410 hc         1 OTG       0.052700
     40 C7          -0.3080     2.1570     3.5440 c3         1 OTG      -0.055800
@<TRIPOS>BOND
     1     1     2 1   
     2     1     3 1   
     3     1    10 1   
     4     1    21 1   
     5     2    22 1   
     6     3     4 1   
     7     3     5 1   
     8     3    23 1   
     9     4    19 1   
    10     4    24 1   
    11     5     6 1   
    12     5     7 1   
    13     5    25 1   
    14     6    26 1   
    15     7     8 1   
    16     7     9 1   
    17     7    27 1   
    18     8    28 1   
    19     9    10 1   
    20     9    11 1   
    21     9    29 1   
    22    11    12 1   
    23    11    30 1   
    24    11    31 1   
    25    12    32 1   
    26    13    14 ar  
    27    13    18 ar  
    28    13    40 1   
    29    14    15 ar  
    30    14    19 1   
    31    15    16 ar  
    32    15    33 1   
    33    16    17 ar  
    34    16    34 1   
    35    17    18 ar  
    36    17    35 1   
    37    18    36 1   
    38    19    20 2   
    39    37    40 1   
    40    38    40 1   
    41    39    40 1   
@<TRIPOS>SUBSTRUCTURE
     1 OTG         1 TEMP              0 ****  ****    0 ROOT
