@<TRIPOS>MOLECULE
OTG
   40    41     1     0     0
SMALL
No Charge or Current Charge


@<TRIPOS>ATOM
      1 C1           0.9910    -1.1840    -1.5840 c6         1 OTG       0.377300
      2 O1           0.0940    -2.2850    -1.4420 oh         1 OTG      -0.685000
      3 C2           0.5190     0.0680    -0.7750 c6         1 OTG       0.090700
      4 N2           0.3160    -0.2700     0.6550 ns         1 OTG      -0.489900
      5 C3          -0.7810     0.6480    -1.4180 c6         1 OTG       0.153300
      6 O3          -1.2040     1.8640    -0.7770 oh         1 OTG      -0.647000
      7 C4          -0.5830     0.9160    -2.9390 c6         1 OTG       0.102300
      8 O4          -1.8110     1.4310    -3.5040 oh         1 OTG      -0.722000
      9 C5          -0.1210    -0.4060    -3.6280 c6         1 OTG       0.145300
     10 O5           1.0950    -0.8870    -2.9880 os         1 OTG      -0.464000
     11 C6           0.1740    -0.2270    -5.1550 c3         1 OTG       0.168600
     12 O6           0.6630    -1.4280    -5.7850 oh         1 OTG      -0.706000
     13 C9           0.0960     0.7990     4.2440 ca         1 OTG      -0.023300
     14 C10          0.2670    -0.0350     3.0990 ca         1 OTG      -0.151600
     15 C11          0.0910    -1.4350     3.2540 ca         1 OTG      -0.086000
     16 C12         -0.2400    -1.9910     4.4990 ca         1 OTG      -0.122000
     17 C13         -0.4030    -1.1650     5.6170 ca         1 OTG      -0.091000
     18 C14         -0.2360     0.2200     5.4870 ca         1 OTG      -0.121000
     19 C8           0.6390     0.5250     1.7320 c          1 OTG       0.621700
     20 O8           1.2460     1.5750     1.5740 o          1 OTG      -0.587100
     21 H1           1.9860    -1.4780    -1.2110 h2         1 OTG       0.078700
     22 HO1          0.4190    -2.9540    -2.0820 ho         1 OTG       0.462000
     23 H2           1.3130     0.8250    -0.8520 h1         1 OTG       0.104700
     24 HN2         -0.1820    -1.1260     0.8620 hn         1 OTG       0.326500
     25 H3          -1.5740    -0.1090    -1.3140 h1         1 OTG       0.057700
     26 HO3         -1.8330     2.2690    -1.4170 ho         1 OTG       0.455000
     27 H4           0.2220     1.6590    -3.0530 h1         1 OTG       0.054700
     28 HO4         -1.5790     1.9350    -4.3200 ho         1 OTG       0.510000
     29 H5          -0.9120    -1.1640    -3.5270 h1         1 OTG       0.074700
     30 H61         -0.7500     0.0980    -5.6510 h1         1 OTG       0.025200
     31 H62          0.9090     0.5810    -5.2690 h1         1 OTG       0.025200
     32 HO6          0.8900    -1.1920    -6.7150 ho         1 OTG       0.504000
     33 H8           0.2320    -2.1160     2.4180 ha         1 OTG       0.115000
     34 H9          -0.3650    -3.0680     4.5980 ha         1 OTG       0.115000
     35 H10         -0.6590    -1.5970     6.5820 ha         1 OTG       0.113000
     36 H6          -0.3710     0.8490     6.3640 ha         1 OTG       0.114000
     37 H7'1         1.2640     2.6260     4.0420 hc         1 OTG       0.052700
     38 H7'2        -0.3760     2.7390     3.3670 hc         1 OTG       0.052700
     39 H7'3        -0.1310     2.7960     5.1090 hc         1 OTG       0.052700
     40 C7           0.2210     2.3210     4.1850 c3         1 OTG      -0.055800
@<TRIPOS>BOND
     1     1     2 1   
     2     1     3 1   
     3     1    10 1   
     4     1    21 1   
     5     2    22 1   
     6     3     4 1   
     7     3     5 1   
     8     3    23 1   
     9     4    19 1   
    10     4    24 1   
    11     5     6 1   
    12     5     7 1   
    13     5    25 1   
    14     6    26 1   
    15     7     8 1   
    16     7     9 1   
    17     7    27 1   
    18     8    28 1   
    19     9    10 1   
    20     9    11 1   
    21     9    29 1   
    22    11    12 1   
    23    11    30 1   
    24    11    31 1   
    25    12    32 1   
    26    13    14 ar  
    27    13    18 ar  
    28    13    40 1   
    29    14    15 ar  
    30    14    19 1   
    31    15    16 ar  
    32    15    33 1   
    33    16    17 ar  
    34    16    34 1   
    35    17    18 ar  
    36    17    35 1   
    37    18    36 1   
    38    19    20 2   
    39    37    40 1   
    40    38    40 1   
    41    39    40 1   
@<TRIPOS>SUBSTRUCTURE
     1 OTG         1 TEMP              0 ****  ****    0 ROOT
