@<TRIPOS>MOLECULE
OTH
   22    21     1     0     0
SMALL
bcc


@<TRIPOS>ATOM
      1 N           10.3490   -21.7750   -43.2860 n7         1 OTH      -0.777200
      2 C            9.3110   -21.0270   -45.3710 c          1 OTH       0.938600
      3 CA           9.0600   -21.5980   -43.9470 c3         1 OTH       0.037500
      4 O            9.1240   -19.8050   -45.5420 o          1 OTH      -0.831800
      5 OG1          8.0090   -21.3450   -41.8330 os         1 OTH      -0.435600
      6 CB           8.0410   -20.7850   -43.1390 c3         1 OTH       0.120100
      7 C22          7.5420   -20.4700   -40.8440 c3         1 OTH       0.137700
      8 CG2          6.6590   -20.8210   -43.7770 c3         1 OTH      -0.103100
      9 C24         11.1150   -20.5670   -43.0490 c3         1 OTH       0.163100
     10 H2          10.1880   -22.2310   -42.3980 hn         1 OTH       0.324800
     11 OXT          9.7180   -21.8440   -46.2180 o          1 OTH      -0.831800
     12 HA           8.6450   -22.6070   -44.0660 h1         1 OTH       0.048700
     13 HB           8.3750   -19.7410   -43.0760 h1         1 OTH       0.050700
     14 H22          7.6410   -20.9690   -39.8790 h1         1 OTH       0.008700
     15 H22A         8.1260   -19.5410   -40.8090 h1         1 OTH       0.008700
     16 H22B         6.4880   -20.1960   -40.9730 h1         1 OTH       0.008700
     17 HG1          5.9190   -20.2910   -43.1750 hc         1 OTH       0.031367
     18 HG2          6.6770   -20.3460   -44.7560 hc         1 OTH       0.031367
     19 HG3          6.3140   -21.8500   -43.9030 hc         1 OTH       0.031367
     20 H24         12.0000   -20.8250   -42.4670 h1         1 OTH       0.013700
     21 H24A        11.4650   -20.1380   -43.9890 h1         1 OTH       0.013700
     22 H24B        10.5860   -19.7730   -42.5060 h1         1 OTH       0.013700
@<TRIPOS>BOND
     1     1     3 1   
     2     1     9 1   
     3     1    10 1   
     4     2     3 1   
     5     2     4 1   
     6     2    11 1   
     7     3     6 1   
     8     3    12 1   
     9     5     6 1   
    10     5     7 1   
    11     6     8 1   
    12     6    13 1   
    13     7    14 1   
    14     7    15 1   
    15     7    16 1   
    16     8    17 1   
    17     8    18 1   
    18     8    19 1   
    19     9    20 1   
    20     9    21 1   
    21     9    22 1   
@<TRIPOS>SUBSTRUCTURE
     1 OTH         1 TEMP              0 ****  ****    0 ROOT
