@<TRIPOS>MOLECULE
OTH
   22    21     1     0     0
SMALL
No Charge or Current Charge


@<TRIPOS>ATOM
      1 N           10.4310   -21.7610   -43.2020 n7         1 OTH      -0.777200
      2 C            9.2750   -21.0240   -45.4500 c          1 OTH       0.938600
      3 CA           9.1330   -21.5810   -43.9710 c3         1 OTH       0.037500
      4 O            9.3350   -19.8110   -45.6420 o          1 OTH      -0.831800
      5 OG1          8.0640   -21.3190   -41.8040 os         1 OTH      -0.435600
      6 CB           8.1010   -20.7540   -43.1390 c3         1 OTH       0.120100
      7 C22          7.3770   -20.5470   -40.8020 c3         1 OTH       0.137700
      8 CG2          6.6690   -20.7950   -43.7360 c3         1 OTH      -0.103100
      9 C24         11.2910   -20.5690   -43.0740 c3         1 OTH       0.163100
     10 H2          10.1670   -22.0550   -42.2560 hn         1 OTH       0.324800
     11 OXT          9.3090   -21.8290   -46.3780 o          1 OTH      -0.831800
     12 HA           8.6860   -22.5770   -44.0890 h1         1 OTH       0.048700
     13 HB           8.4390   -19.7090   -43.1000 h1         1 OTH       0.050700
     14 H22          7.5130   -21.0060   -39.8140 h1         1 OTH       0.008700
     15 H22A         7.7720   -19.5240   -40.7600 h1         1 OTH       0.008700
     16 H22B         6.2990   -20.5000   -41.0030 h1         1 OTH       0.008700
     17 HG1          5.9960   -20.1160   -43.2020 hc         1 OTH       0.031367
     18 HG2          6.6720   -20.4830   -44.7860 hc         1 OTH       0.031367
     19 HG3          6.2550   -21.8090   -43.6850 hc         1 OTH       0.031367
     20 H24         12.1820   -20.8070   -42.4770 h1         1 OTH       0.013700
     21 H24A        11.6270   -20.2180   -44.0580 h1         1 OTH       0.013700
     22 H24B        10.7570   -19.7500   -42.5750 h1         1 OTH       0.013700
@<TRIPOS>BOND
     1     1     3 1   
     2     1     9 1   
     3     1    10 1   
     4     2     3 1   
     5     2     4 1   
     6     2    11 1   
     7     3     6 1   
     8     3    12 1   
     9     5     6 1   
    10     5     7 1   
    11     6     8 1   
    12     6    13 1   
    13     7    14 1   
    14     7    15 1   
    15     7    16 1   
    16     8    17 1   
    17     8    18 1   
    18     8    19 1   
    19     9    20 1   
    20     9    21 1   
    21     9    22 1   
@<TRIPOS>SUBSTRUCTURE
     1 OTH         1 TEMP              0 ****  ****    0 ROOT
