@<TRIPOS>MOLECULE
OTI
   76    80     1     0     0
SMALL
No Charge or Current Charge


@<TRIPOS>ATOM
      1 C10         26.9350     9.2510   -51.0270 c5         1 OTI       0.094000
      2 C11         27.7370     9.2770   -53.5360 c3         1 OTI       0.139000
      3 C14         26.8180     8.6700   -55.8070 c3         1 OTI      -0.054600
      4 C15         25.4130     8.2630   -53.7380 c          1 OTI       0.712000
      5 C18         26.0310    11.8500   -46.6490 c3         1 OTI       0.186000
      6 C20         26.3090    12.9380   -44.2830 ce         1 OTI      -0.340400
      7 C23         29.0610    12.5890   -44.5770 ce         1 OTI       0.582200
      8 C25         30.3930    11.9490   -44.7700 cc         1 OTI       0.369100
      9 C27         32.0760    10.8790   -45.7800 cd         1 OTI       0.282900
     10 C28         32.6410    11.0730   -44.5420 cc         1 OTI      -0.290000
     11 C30         27.2460    15.0400   -43.1690 ca         1 OTI      -0.048300
     12 C31         27.2970    15.7690   -44.3790 ca         1 OTI      -0.108000
     13 C32         27.2440    17.1710   -44.3830 ca         1 OTI      -0.094000
     14 C33         27.1400    17.8660   -43.1710 ca         1 OTI      -0.148000
     15 C34         27.0970    17.1610   -41.9600 ca         1 OTI       0.148000
     16 C01         27.3850    10.1980   -49.8550 c5         1 OTI       0.073700
     17 C02         26.3610    10.5190   -48.7340 c6         1 OTI       0.141800
     18 N03         26.8980    11.6050   -47.8530 n3         1 OTI      -0.758600
     19 C04         27.1450    12.8560   -48.6490 c6         1 OTI       0.124800
     20 C05         28.1110    12.6490   -49.8550 c6         1 OTI       0.105000
     21 N06         27.7870    11.4090   -50.5860 n          1 OTI      -0.402800
     22 C07         28.0500    11.1650   -51.9140 c          1 OTI       0.581000
     23 O08         28.5840    11.9420   -52.6920 o          1 OTI      -0.611000
     24 N09         27.5810     9.8910   -52.2010 n          1 OTI      -0.390800
     25 C12         26.4450     9.2280   -54.4040 c3         1 OTI      -0.193000
     26 C13         25.8690    10.6660   -54.5870 c3         1 OTI      -0.054600
     27 O16         25.7510     7.1050   -53.5370 o          1 OTI      -0.736000
     28 O17         24.2990     8.6770   -53.4460 o          1 OTI      -0.736000
     29 C19         26.7830    12.4680   -45.4590 c2         1 OTI       0.223800
     30 C21         27.2850    13.4950   -43.2290 c6         1 OTI       0.259000
     31 N22         28.6760    13.0320   -43.4220 n2         1 OTI      -0.645900
     32 N24         28.1500    12.5050   -45.6260 nu         1 OTI      -0.770200
     33 N26         30.7900    11.3790   -45.9170 nd         1 OTI      -0.634000
     34 S29         31.5590    11.9110   -43.4680 ss         1 OTI       0.074600
     35 C35         27.1550    15.7470   -41.9370 ca         1 OTI      -0.084300
     36 C36         27.1190    15.0020   -40.5990 c3         1 OTI      -0.046800
     37 O39         23.9690    12.5430   -44.6820 o          1 OTI      -0.510000
     38 O40         24.6170    13.4560   -42.6870 os         1 OTI      -0.457100
     39 C41         23.2630    13.6890   -42.2580 c3         1 OTI       0.165600
     40 C42         22.7490    14.9760   -42.9340 c3         1 OTI      -0.118100
     41 H1          25.8430     9.2530   -51.1390 h1         1 OTI       0.075200
     42 H2          27.2710     8.2170   -50.8750 h1         1 OTI       0.075200
     43 H3          28.1190     8.2570   -53.4000 h1         1 OTI       0.044700
     44 H4          28.5120     9.8250   -54.0880 h1         1 OTI       0.044700
     45 H5          25.9240     8.5760   -56.4360 hc         1 OTI       0.019200
     46 H6          27.5250     9.3350   -56.3190 hc         1 OTI       0.019200
     47 H7          27.2840     7.6810   -55.7310 hc         1 OTI       0.019200
     48 H8          25.1840    12.4950   -46.9210 h1         1 OTI       0.083200
     49 H9          25.6020    10.9030   -46.2950 h1         1 OTI       0.083200
     50 H10         32.5500    10.3830   -46.6180 h4         1 OTI       0.047100
     51 H11         33.6220    10.7770   -44.1960 h4         1 OTI       0.159000
     52 H12         27.3780    15.2450   -45.3280 ha         1 OTI       0.122000
     53 H13         27.2820    17.7150   -45.3240 ha         1 OTI       0.117000
     54 H14         27.0950    18.9520   -43.1680 ha         1 OTI       0.125000
     55 H15         28.2740     9.7730   -49.3700 h1         1 OTI       0.065700
     56 H16         25.4070    10.8270   -49.1880 h1         1 OTI       0.064700
     57 H17         26.1690     9.6020   -48.1570 h1         1 OTI       0.064700
     58 H19         27.5480    13.6570   -48.0130 h1         1 OTI       0.044200
     59 H20         26.1880    13.2280   -49.0460 h1         1 OTI       0.044200
     60 H21         29.1430    12.5770   -49.4830 h1         1 OTI       0.062200
     61 H22         28.0550    13.5160   -50.5280 h1         1 OTI       0.062200
     62 H23         25.5580    11.0980   -53.6280 hc         1 OTI       0.019200
     63 H24         26.6190    11.3330   -55.0280 hc         1 OTI       0.019200
     64 H25         24.9960    10.6580   -55.2520 hc         1 OTI       0.019200
     65 H27         27.9420    14.2810   -40.5250 hc         1 OTI       0.049700
     66 H28         27.2130    15.6710   -39.7370 hc         1 OTI       0.049700
     67 H29         26.1770    14.4530   -40.4810 hc         1 OTI       0.049700
     68 H30         23.2380    13.8330   -41.1700 h1         1 OTI       0.055700
     69 H31         22.6100    12.8390   -42.4970 h1         1 OTI       0.055700
     70 H32         21.7500    15.2250   -42.5570 hc         1 OTI       0.046033
     71 H33         23.4170    15.8180   -42.7160 hc         1 OTI       0.046033
     72 H34         22.6800    14.8550   -44.0210 hc         1 OTI       0.046033
     73 H18         26.9730    13.0850   -42.2580 h1         1 OTI       0.087700
     74 H35         28.4820    12.0230   -46.4660 hn         1 OTI       0.558000
     75 F37         26.9980    17.8670   -40.8110 f          1 OTI      -0.197000
     76 C38         24.8520    12.9520   -43.9410 c          1 OTI       0.625300
@<TRIPOS>BOND
     1     1    16 1   
     2     1    24 1   
     3     1    41 1   
     4     1    42 1   
     5     2    24 1   
     6     2    25 1   
     7     2    43 1   
     8     2    44 1   
     9     3    25 1   
    10     3    45 1   
    11     3    46 1   
    12     3    47 1   
    13     4    25 1   
    14     4    27 1   
    15     4    28 1   
    16     5    18 1   
    17     5    29 1   
    18     5    48 1   
    19     5    49 1   
    20     6    29 2   
    21     6    30 1   
    22     6    76 1   
    23     7     8 1   
    24     7    31 2   
    25     7    32 1   
    26     8    33 2   
    27     8    34 1   
    28     9    10 2   
    29     9    33 1   
    30     9    50 1   
    31    10    34 1   
    32    10    51 1   
    33    11    12 ar  
    34    11    30 1   
    35    11    35 ar  
    36    12    13 ar  
    37    12    52 1   
    38    13    14 ar  
    39    13    53 1   
    40    14    15 ar  
    41    14    54 1   
    42    15    35 ar  
    43    15    75 1   
    44    16    17 1   
    45    16    21 1   
    46    16    55 1   
    47    17    18 1   
    48    17    56 1   
    49    17    57 1   
    50    18    19 1   
    51    19    20 1   
    52    19    58 1   
    53    19    59 1   
    54    20    21 1   
    55    20    60 1   
    56    20    61 1   
    57    21    22 1   
    58    22    23 2   
    59    22    24 1   
    60    25    26 1   
    61    26    62 1   
    62    26    63 1   
    63    26    64 1   
    64    29    32 1   
    65    30    31 1   
    66    30    73 1   
    67    32    74 1   
    68    35    36 1   
    69    36    65 1   
    70    36    66 1   
    71    36    67 1   
    72    37    76 2   
    73    38    39 1   
    74    38    76 1   
    75    39    40 1   
    76    39    68 1   
    77    39    69 1   
    78    40    70 1   
    79    40    71 1   
    80    40    72 1   
@<TRIPOS>SUBSTRUCTURE
     1 OTI         1 TEMP              0 ****  ****    0 ROOT
