@<TRIPOS>MOLECULE
OTI
   76    80     1     0     0
SMALL
abcg2


@<TRIPOS>ATOM
      1 C10         27.8770     9.2570   -51.0120 c5         1 OTI       0.094000
      2 C11         27.3130     9.9500   -53.4020 c3         1 OTI       0.139000
      3 C14         25.6550     9.4680   -55.1810 c3         1 OTI      -0.054600
      4 C15         25.3130     8.4790   -52.8990 c          1 OTI       0.712000
      5 C18         26.3040    11.5080   -46.8540 c3         1 OTI       0.186000
      6 C20         26.2360    12.6650   -44.5530 ce         1 OTI      -0.340400
      7 C23         28.9310    12.2460   -44.3530 ce         1 OTI       0.582200
      8 C25         30.3330    11.8110   -44.3430 cc         1 OTI       0.369100
      9 C27         32.2220    10.9230   -45.0560 cd         1 OTI       0.282900
     10 C28         32.6440    11.3280   -43.8220 cc         1 OTI      -0.290000
     11 C30         27.1340    14.8290   -43.5680 ca         1 OTI      -0.048300
     12 C31         27.1650    15.4180   -44.8290 ca         1 OTI      -0.108000
     13 C32         27.2790    16.7950   -44.9760 ca         1 OTI      -0.094000
     14 C33         27.3580    17.6040   -43.8500 ca         1 OTI      -0.148000
     15 C34         27.3250    16.9970   -42.6080 ca         1 OTI       0.148000
     16 C01         28.2150    10.0950   -49.7730 c5         1 OTI       0.073700
     17 C02         27.0150    10.3170   -48.8530 c6         1 OTI       0.141800
     18 N03         27.3160    11.3730   -47.8920 n3         1 OTI      -0.758600
     19 C04         27.5730    12.6430   -48.5780 c6         1 OTI       0.124800
     20 C05         28.7870    12.5040   -49.4880 c6         1 OTI       0.105000
     21 N06         28.6440    11.3610   -50.3680 n          1 OTI      -0.402800
     22 C07         28.1450    11.4830   -51.6490 c          1 OTI       0.581000
     23 O08         28.1800    12.5070   -52.3330 o          1 OTI      -0.611000
     24 N09         27.6350    10.2750   -52.0270 n          1 OTI      -0.390800
     25 C12         25.8100     9.7380   -53.6770 c3         1 OTI      -0.193000
     26 C13         25.0320    10.9990   -53.3010 c3         1 OTI      -0.054600
     27 O16         25.9210     7.4030   -53.1380 o          1 OTI      -0.736000
     28 O17         24.3520     8.6110   -52.0990 o          1 OTI      -0.736000
     29 C19         26.8980    12.0960   -45.5920 c2         1 OTI       0.223800
     30 C21         27.0390    13.3100   -43.4320 c6         1 OTI       0.259000
     31 N22         28.4100    12.7820   -43.3190 n2         1 OTI      -0.645900
     32 N24         28.2610    12.0080   -45.5290 nu         1 OTI      -0.770200
     33 N26         30.9130    11.2010   -45.3420 nd         1 OTI      -0.634000
     34 S29         31.3600    12.0920   -42.9780 ss         1 OTI       0.074600
     35 C35         27.2240    15.6250   -42.4130 ca         1 OTI      -0.084300
     36 C36         27.1980    15.0410   -41.0260 c3         1 OTI      -0.046800
     37 O39         24.0070    12.2290   -45.3090 o          1 OTI      -0.510000
     38 O40         24.3600    13.4290   -43.4310 os         1 OTI      -0.457100
     39 C41         22.9370    13.6270   -43.2640 c3         1 OTI       0.165600
     40 C42         22.4680    14.8530   -44.0210 c3         1 OTI      -0.118100
     41 H1          27.0000     8.6320   -50.8520 h1         1 OTI       0.075200
     42 H2          28.7120     8.6130   -51.3050 h1         1 OTI       0.075200
     43 H3          27.8570     9.0460   -53.6840 h1         1 OTI       0.044700
     44 H4          27.6710    10.7750   -54.0190 h1         1 OTI       0.044700
     45 H5          24.6080     9.2890   -55.4340 hc         1 OTI       0.019200
     46 H6          25.9980    10.3290   -55.7610 hc         1 OTI       0.019200
     47 H7          26.2330     8.5950   -55.4820 hc         1 OTI       0.019200
     48 H8          25.4520    12.1140   -47.1730 h1         1 OTI       0.083200
     49 H9          25.9090    10.5180   -46.6140 h1         1 OTI       0.083200
     50 H10         32.8350    10.4180   -45.7880 h4         1 OTI       0.047100
     51 H11         33.6200    11.2200   -43.3790 h4         1 OTI       0.159000
     52 H12         27.0880    14.7950   -45.7100 ha         1 OTI       0.122000
     53 H13         27.3020    17.2390   -45.9620 ha         1 OTI       0.117000
     54 H14         27.4390    18.6800   -43.9210 ha         1 OTI       0.125000
     55 H15         29.0320     9.6620   -49.1940 h1         1 OTI       0.065700
     56 H16         26.1310    10.5680   -49.4620 h1         1 OTI       0.064700
     57 H17         26.8020     9.3930   -48.3130 h1         1 OTI       0.064700
     58 H19         27.7640    13.4210   -47.8370 h1         1 OTI       0.044200
     59 H20         26.6930    12.9470   -49.1660 h1         1 OTI       0.044200
     60 H21         29.6840    12.3680   -48.8780 h1         1 OTI       0.062200
     61 H22         28.9150    13.3950   -50.0990 h1         1 OTI       0.062200
     62 H23         25.1300    11.2240   -52.2390 hc         1 OTI       0.019200
     63 H24         25.4070    11.8550   -53.8680 hc         1 OTI       0.019200
     64 H25         23.9720    10.8790   -53.5230 hc         1 OTI       0.019200
     65 H27         27.9290    14.2380   -40.9280 hc         1 OTI       0.049700
     66 H28         27.4180    15.7980   -40.2770 hc         1 OTI       0.049700
     67 H29         26.2160    14.6190   -40.8000 hc         1 OTI       0.049700
     68 H30         22.8070    13.7520   -42.1900 h1         1 OTI       0.055700
     69 H31         22.4120    12.7300   -43.5860 h1         1 OTI       0.055700
     70 H32         21.4070    15.0190   -43.8240 hc         1 OTI       0.046033
     71 H33         23.0200    15.7380   -43.7000 hc         1 OTI       0.046033
     72 H34         22.6030    14.7250   -45.0950 hc         1 OTI       0.046033
     73 H18         26.5460    13.0950   -42.4880 h1         1 OTI       0.087700
     74 H35         28.7220    11.5360   -46.3000 hn         1 OTI       0.558000
     75 F37         27.3920    17.8090   -41.5150 f          1 OTI      -0.197000
     76 C38         24.7820    12.7290   -44.5080 c          1 OTI       0.625300
@<TRIPOS>BOND
     1     1    16 1   
     2     1    24 1   
     3     1    41 1   
     4     1    42 1   
     5     2    24 1   
     6     2    25 1   
     7     2    43 1   
     8     2    44 1   
     9     3    25 1   
    10     3    45 1   
    11     3    46 1   
    12     3    47 1   
    13     4    25 1   
    14     4    27 1   
    15     4    28 1   
    16     5    18 1   
    17     5    29 1   
    18     5    48 1   
    19     5    49 1   
    20     6    29 2   
    21     6    30 1   
    22     6    76 1   
    23     7     8 1   
    24     7    31 2   
    25     7    32 1   
    26     8    33 2   
    27     8    34 1   
    28     9    10 2   
    29     9    33 1   
    30     9    50 1   
    31    10    34 1   
    32    10    51 1   
    33    11    12 ar  
    34    11    30 1   
    35    11    35 ar  
    36    12    13 ar  
    37    12    52 1   
    38    13    14 ar  
    39    13    53 1   
    40    14    15 ar  
    41    14    54 1   
    42    15    35 ar  
    43    15    75 1   
    44    16    17 1   
    45    16    21 1   
    46    16    55 1   
    47    17    18 1   
    48    17    56 1   
    49    17    57 1   
    50    18    19 1   
    51    19    20 1   
    52    19    58 1   
    53    19    59 1   
    54    20    21 1   
    55    20    60 1   
    56    20    61 1   
    57    21    22 1   
    58    22    23 2   
    59    22    24 1   
    60    25    26 1   
    61    26    62 1   
    62    26    63 1   
    63    26    64 1   
    64    29    32 1   
    65    30    31 1   
    66    30    73 1   
    67    32    74 1   
    68    35    36 1   
    69    36    65 1   
    70    36    66 1   
    71    36    67 1   
    72    37    76 2   
    73    38    39 1   
    74    38    76 1   
    75    39    40 1   
    76    39    68 1   
    77    39    69 1   
    78    40    70 1   
    79    40    71 1   
    80    40    72 1   
@<TRIPOS>SUBSTRUCTURE
     1 OTI         1 TEMP              0 ****  ****    0 ROOT
