@<TRIPOS>MOLECULE
OTJ
   57    60     1     0     0
SMALL
No Charge or Current Charge


@<TRIPOS>ATOM
      1 C1          -5.2320     0.2890    -0.8990 ca         1 OTJ      -0.057500
      2 C2          -4.7180    -0.7950     1.2080 ca         1 OTJ      -0.057500
      3 C3           7.8110    -0.5960     0.6450 ca         1 OTJ      -0.129000
      4 C4          -6.5450    -0.2130    -0.8400 ca         1 OTJ      -0.159500
      5 C5          -6.0300    -1.2960     1.2660 ca         1 OTJ      -0.159500
      6 C6           8.5660     0.4940     0.1820 ca         1 OTJ      -0.097000
      7 C7           6.6980     1.1940    -1.2080 ca         1 OTJ      -0.102000
      8 C8           5.6530    -2.1080     2.0110 cc         1 OTJ       0.434400
      9 C9          -4.3130     0.0300     0.1380 ca         1 OTJ      -0.140500
     10 C10          5.9300     0.1020    -0.7540 ca         1 OTJ      -0.030300
     11 C11          6.4920    -0.7980     0.1870 ca         1 OTJ      -0.025200
     12 C12         -6.9590    -1.0060     0.2510 ca         1 OTJ       0.002000
     13 C13          8.0070     1.3880    -0.7420 ca         1 OTJ       0.125000
     14 C14         -2.9340     0.5220     0.0320 cc         1 OTJ       0.337500
     15 C15         -2.2240     1.0230     1.0980 cd         1 OTJ      -0.011000
     16 C16         -1.0750     1.1510    -0.8020 cd         1 OTJ       0.386800
     17 C17          2.0260     0.2580    -0.8380 c          1 OTJ       0.603100
     18 C18         -9.3990    -1.4290    -0.4090 c          1 OTJ       0.645100
     19 C19        -11.6870    -2.1720    -0.5040 c3         1 OTJ       0.171900
     20 C20          4.5050    -0.0730    -1.2830 c3         1 OTJ      -0.018100
     21 C21          0.0270     1.4610    -1.7970 c3         1 OTJ       0.084700
     22 C22          3.4410     0.4460    -0.2880 c3         1 OTJ      -0.150400
     23 N23          4.8570    -3.0780     2.0740 n2         1 OTJ      -0.571800
     24 N24         -2.2440     0.6230    -1.1420 nc         1 OTJ      -0.651000
     25 N25          4.6610    -3.1550     0.7170 na         1 OTJ      -0.059200
     26 N26          5.8670    -3.1230    -0.0370 na         1 OTJ      -0.138000
     27 N27         -1.0200     1.4250     0.5550 na         1 OTJ      -0.293500
     28 N28          5.7570    -1.8880     0.6630 na         1 OTJ      -0.228300
     29 N29         -8.2670    -1.5470     0.3750 ns         1 OTJ      -0.139000
     30 N30          1.3910     1.4130    -1.2330 ns         1 OTJ      -0.513900
     31 O31          1.4810    -0.8340    -0.8940 o          1 OTJ      -0.602100
     32 O32         -9.5080    -0.7770    -1.4390 o          1 OTJ      -0.518000
     33 O33        -10.4080    -2.1620     0.1570 os         1 OTJ      -0.460100
     34 Cl3          8.9500     2.7560    -1.3210 cl         1 OTJ      -0.193000
     35 Cl5         -2.6630     1.2500     2.7630 cl         1 OTJ      -0.129000
     36 H1          -4.9320     0.8930    -1.7530 ha         1 OTJ       0.126500
     37 H4          -7.2200     0.0230    -1.6560 ha         1 OTJ       0.130500
     38 H2          -4.0160    -1.0640     1.9940 ha         1 OTJ       0.126500
     39 H5          -6.3210    -1.9230     2.1060 ha         1 OTJ       0.130500
     40 H6           9.5820     0.6470     0.5380 ha         1 OTJ       0.135000
     41 H7           6.2800     1.8970    -1.9230 ha         1 OTJ       0.136000
     42 H8           6.0350    -1.4920     2.8180 h5         1 OTJ       0.060100
     43 H201         4.3890     0.4570    -2.2360 hc         1 OTJ       0.078200
     44 H202         4.3100    -1.1280    -1.5100 hc         1 OTJ       0.078200
     45 H29         -8.3980    -2.1300     1.1900 hn         1 OTJ       0.165000
     46 H27         -0.2440     1.8550     1.0410 hn         1 OTJ       0.365000
     47 H211        -0.0360     0.7460    -2.6280 h1         1 OTJ       0.071200
     48 H212        -0.1490     2.4630    -2.2080 h1         1 OTJ       0.071200
     49 H221         3.6340     1.5080    -0.0950 hc         1 OTJ       0.064200
     50 H222         3.5280    -0.1200     0.6470 hc         1 OTJ       0.064200
     51 H30          1.9170     2.2770    -1.1550 hn         1 OTJ       0.321500
     52 H191       -12.4000    -2.7940     0.0520 h1         1 OTJ       0.050367
     53 H192       -12.1020    -1.1580    -0.5720 h1         1 OTJ       0.050367
     54 H193       -11.6000    -2.5800    -1.5200 h1         1 OTJ       0.050367
     55 H25          3.9250    -3.7620     0.3650 hn         1 OTJ       0.271000
     56 H26          6.5870    -3.7580     0.2810 hn         1 OTJ       0.181000
     57 H3           8.2590    -1.2870     1.3570 ha         1 OTJ       0.119000
@<TRIPOS>BOND
     1     1     4 ar  
     2     1     9 ar  
     3     1    36 1   
     4     2     5 ar  
     5     2     9 ar  
     6     2    38 1   
     7     3     6 ar  
     8     3    11 ar  
     9     3    57 1   
    10     4    12 ar  
    11     4    37 1   
    12     5    12 ar  
    13     5    39 1   
    14     6    13 ar  
    15     6    40 1   
    16     7    10 ar  
    17     7    13 ar  
    18     7    41 1   
    19     8    23 2   
    20     8    28 1   
    21     8    42 1   
    22     9    14 1   
    23    10    11 ar  
    24    10    20 1   
    25    11    28 1   
    26    12    29 1   
    27    13    34 1   
    28    14    15 2   
    29    14    24 1   
    30    15    27 1   
    31    15    35 1   
    32    16    21 1   
    33    16    24 2   
    34    16    27 1   
    35    17    22 1   
    36    17    30 1   
    37    17    31 2   
    38    18    29 1   
    39    18    32 2   
    40    18    33 1   
    41    19    33 1   
    42    19    52 1   
    43    19    53 1   
    44    19    54 1   
    45    20    22 1   
    46    20    43 1   
    47    20    44 1   
    48    21    30 1   
    49    21    47 1   
    50    21    48 1   
    51    22    49 1   
    52    22    50 1   
    53    23    25 1   
    54    25    26 1   
    55    25    55 1   
    56    26    28 1   
    57    26    56 1   
    58    27    46 1   
    59    29    45 1   
    60    30    51 1   
@<TRIPOS>SUBSTRUCTURE
     1 OTJ         1 TEMP              0 ****  ****    0 ROOT
