@<TRIPOS>MOLECULE
OTJ
   57    60     1     0     0
SMALL
abcg2


@<TRIPOS>ATOM
      1 C1          -4.4910    -0.1410    -0.6790 ca         1 OTJ      -0.057500
      2 C2          -5.0380     1.2770     1.1580 ca         1 OTJ      -0.057500
      3 C3           6.5090    -1.7940     1.2580 ca         1 OTJ      -0.129000
      4 C4          -5.5810    -0.9510    -0.4060 ca         1 OTJ      -0.159500
      5 C5          -6.1300     0.4780     1.4400 ca         1 OTJ      -0.159500
      6 C6           7.4560    -0.9130     1.7610 ca         1 OTJ      -0.097000
      7 C7           6.6610     0.7620     0.2160 ca         1 OTJ      -0.102000
      8 C8           4.1080    -3.3360     0.5050 cc         1 OTJ       0.434400
      9 C9          -4.1950     0.9890     0.0820 ca         1 OTJ      -0.140500
     10 C10          5.6920    -0.1050    -0.2740 ca         1 OTJ      -0.030300
     11 C11          5.6260    -1.3970     0.2610 ca         1 OTJ      -0.025200
     12 C12         -6.4240    -0.6440     0.6630 ca         1 OTJ       0.002000
     13 C13          7.5240     0.3590     1.2240 ca         1 OTJ       0.125000
     14 C14         -3.0330     1.8040    -0.2680 cc         1 OTJ       0.337500
     15 C15         -2.7340     3.1140     0.0130 cd         1 OTJ      -0.011000
     16 C16         -1.1520     2.2520    -1.2170 cd         1 OTJ       0.386800
     17 C17          2.3720     1.2600    -1.6790 c          1 OTJ       0.603100
     18 C18         -8.0530    -2.4980     0.4320 c          1 OTJ       0.645100
     19 C19         -9.8140    -4.0470     0.5850 c3         1 OTJ       0.171900
     20 C20          4.7170     0.3760    -1.3110 c3         1 OTJ      -0.018100
     21 C21          0.1190     2.1430    -1.9840 c3         1 OTJ       0.084700
     22 C22          3.3740     0.7260    -0.6760 c3         1 OTJ      -0.150400
     23 N23          3.6260    -4.2450    -0.2380 n2         1 OTJ      -0.571800
     24 N24         -2.0230     1.2950    -1.0390 nc         1 OTJ      -0.651000
     25 N25          3.8010    -3.7610    -1.5530 na         1 OTJ      -0.059200
     26 N26          4.8990    -2.8520    -1.5120 na         1 OTJ      -0.138000
     27 N27         -1.5440     3.3820    -0.5900 na         1 OTJ      -0.293500
     28 N28          4.6510    -2.2870    -0.2270 na         1 OTJ      -0.228300
     29 N29         -7.5510    -1.3820     1.0240 ns         1 OTJ      -0.139000
     30 N30          1.1740     1.5830    -1.1620 ns         1 OTJ      -0.513900
     31 O31          2.6210     1.3930    -2.8690 o          1 OTJ      -0.602100
     32 O32         -7.5960    -3.0630    -0.5350 o          1 OTJ      -0.518000
     33 O33         -9.1460    -2.8920     1.0840 os         1 OTJ      -0.460100
     34 CL3          8.7090     1.4750     1.8180 cl         1 OTJ      -0.193000
     35 CL5         -3.5770     4.3320     0.8480 cl         1 OTJ      -0.129000
     36 H1          -3.8560    -0.4000    -1.5160 ha         1 OTJ       0.126500
     37 H4          -5.7620    -1.8090    -1.0330 ha         1 OTJ       0.130500
     38 H2          -4.8480     2.1210     1.8060 ha         1 OTJ       0.126500
     39 H5          -6.7620     0.7280     2.2840 ha         1 OTJ       0.130500
     40 H6           8.1330    -1.2280     2.5430 ha         1 OTJ       0.135000
     41 H7           6.7290     1.7650    -0.1850 ha         1 OTJ       0.136000
     42 H8           4.0360    -3.3170     1.5820 h5         1 OTJ       0.060100
     43 H201         5.1290     1.2580    -1.8040 hc         1 OTJ       0.078200
     44 H202         4.5800    -0.3820    -2.0810 hc         1 OTJ       0.078200
     45 H29         -8.0640    -1.0330     1.8200 hn         1 OTJ       0.165000
     46 H27         -1.0580     4.2670    -0.5770 hn         1 OTJ       0.365000
     47 H211        -0.0570     1.5030    -2.8490 h1         1 OTJ       0.071200
     48 H212         0.4060     3.1270    -2.3650 h1         1 OTJ       0.071200
     49 H221         3.5130     1.4730     0.1100 hc         1 OTJ       0.064200
     50 H222         2.9480    -0.1540    -0.1870 hc         1 OTJ       0.064200
     51 H30          1.0240     1.4970    -0.1700 hn         1 OTJ       0.321500
     52 H191       -10.6520    -4.2160     1.2550 h1         1 OTJ       0.050367
     53 H192       -10.1890    -3.8880    -0.4260 h1         1 OTJ       0.050367
     54 H193        -9.1660    -4.9230     0.5950 h1         1 OTJ       0.050367
     55 H25          4.0460    -4.5290    -2.1660 hn         1 OTJ       0.271000
     56 H26          5.7650    -3.4040    -1.4150 hn         1 OTJ       0.181000
     57 H3           6.4690    -2.8020     1.6500 ha         1 OTJ       0.119000
@<TRIPOS>BOND
     1     1     4 ar  
     2     1     9 ar  
     3     1    36 1   
     4     2     5 ar  
     5     2     9 ar  
     6     2    38 1   
     7     3     6 ar  
     8     3    11 ar  
     9     3    57 1   
    10     4    12 ar  
    11     4    37 1   
    12     5    12 ar  
    13     5    39 1   
    14     6    13 ar  
    15     6    40 1   
    16     7    10 ar  
    17     7    13 ar  
    18     7    41 1   
    19     8    23 2   
    20     8    28 1   
    21     8    42 1   
    22     9    14 1   
    23    10    11 ar  
    24    10    20 1   
    25    11    28 1   
    26    12    29 1   
    27    13    34 1   
    28    14    15 2   
    29    14    24 1   
    30    15    27 1   
    31    15    35 1   
    32    16    21 1   
    33    16    24 2   
    34    16    27 1   
    35    17    22 1   
    36    17    30 1   
    37    17    31 2   
    38    18    29 1   
    39    18    32 2   
    40    18    33 1   
    41    19    33 1   
    42    19    52 1   
    43    19    53 1   
    44    19    54 1   
    45    20    22 1   
    46    20    43 1   
    47    20    44 1   
    48    21    30 1   
    49    21    47 1   
    50    21    48 1   
    51    22    49 1   
    52    22    50 1   
    53    23    25 1   
    54    25    26 1   
    55    25    55 1   
    56    26    28 1   
    57    26    56 1   
    58    27    46 1   
    59    29    45 1   
    60    30    51 1   
@<TRIPOS>SUBSTRUCTURE
     1 OTJ         1 TEMP              0 ****  ****    0 ROOT
