@<TRIPOS>MOLECULE
OTK
   74    76     1     0     0
SMALL
abcg2


@<TRIPOS>ATOM
      1 C1           0.9590     2.2380     1.0320 c5         1 OTK      -0.062700
      2 C2           2.2580     1.5010     1.4090 c5         1 OTK      -0.099400
      3 C3           3.1280     1.4980     0.1400 c5         1 OTK       0.173300
      4 O3           3.2850     0.1770    -0.4020 os         1 OTK      -0.445100
      5 C4           2.3490     2.3150    -0.8960 c5         1 OTK      -0.065700
      6 C5           0.8670     2.1250    -0.4980 c5         1 OTK      -0.041700
      7 O5           0.5220     0.8010    -2.4490 os         1 OTK      -0.411100
      8 C6           0.3200     0.7990    -1.0200 c5         1 OTK       0.201300
      9 O6          -1.8280     1.7340    -1.2040 oh         1 OTK      -0.645000
     10 C7          -1.1880     0.5250    -0.8760 c5         1 OTK       0.157000
     11 O7          -1.7250    -1.3600     0.6210 os         1 OTK      -0.439100
     12 C8          -1.6420     0.0620     0.5310 c3         1 OTK       0.180300
     13 C9          -0.7400     0.4390     1.7080 c3         1 OTK      -0.105400
     14 C10         -0.2660     1.8840     1.8860 c3         1 OTK       0.225000
     15 O10         -2.9510     2.1440     2.7160 o          1 OTK      -0.493000
     16 C11         -1.4120    -0.4450    -2.0730 c5         1 OTK       0.050000
     17 O11         -0.8180    -1.6900    -1.7890 oh         1 OTK      -0.638000
     18 C12         -0.4760     0.2100    -3.0880 c          1 OTK       0.634100
     19 O12         -0.5340     0.1600    -4.2860 o          1 OTK      -0.493000
     20 C21          4.0890    -0.6830     0.2140 c          1 OTK       0.600300
     21 C22          4.0920    -2.0000    -0.4660 ce         1 OTK      -0.178400
     22 C23          3.1410    -2.2120    -1.6130 c3         1 OTK      -0.043900
     23 C24          4.9260    -2.9720    -0.0690 c2         1 OTK      -0.134200
     24 C25          5.9480    -2.9650     1.0220 c3         1 OTK      -0.064900
     25 C26          2.7660     3.7840    -0.8550 c3         1 OTK      -0.087100
     26 C27         -2.9050    -1.9710     0.7030 c          1 OTK       0.600100
     27 C28         -2.7330    -3.4630     0.7170 c3         1 OTK      -0.137400
     28 C29         -4.0190    -4.2320     0.9710 c3         1 OTK      -0.068400
     29 C30         -3.7820    -5.7350     0.9610 c3         1 OTK      -0.091100
     30 C31          0.0850     2.1220     3.3530 c3         1 OTK      -0.122100
     31 C33         -3.2220     4.0720     1.3120 c3         1 OTK      -0.158100
     32 C34         -2.8310    -0.5810    -2.5850 c3         1 OTK      -0.118100
     33 H1           1.1280     3.3000     1.2320 hc         1 OTK       0.066700
     34 H2           2.7710     1.9990     2.2300 hc         1 OTK       0.060200
     35 H2A          2.0730     0.4780     1.7460 hc         1 OTK       0.060200
     36 H3           4.1190     1.9170     0.3240 h1         1 OTK       0.070700
     37 H4           2.5570     1.9450    -1.9010 hc         1 OTK       0.092700
     38 H5           0.2620     2.9350    -0.9090 hc         1 OTK       0.091700
     39 H6           0.8700    -0.0490    -0.6060 h1         1 OTK       0.094700
     40 HO6         -2.7840     1.6120    -1.1950 ho         1 OTK       0.455000
     41 H8          -2.6390     0.4750     0.6960 h1         1 OTK       0.078700
     42 H9          -1.2710     0.1270     2.6080 hc         1 OTK       0.072200
     43 H9A          0.1530    -0.1890     1.6700 hc         1 OTK       0.072200
     44 HO11        -0.8950    -2.2560    -2.5660 ho         1 OTK       0.458000
     45 H23          3.3410    -1.5270    -2.4380 hc         1 OTK       0.047700
     46 H23A         3.2340    -3.2270    -1.9960 hc         1 OTK       0.047700
     47 H23B         2.0990    -2.0620    -1.3230 hc         1 OTK       0.047700
     48 H24          4.8510    -3.9060    -0.6180 ha         1 OTK       0.169000
     49 H25          5.4800    -2.9480     2.0080 hc         1 OTK       0.053700
     50 H25A         6.5580    -3.8640     0.9640 hc         1 OTK       0.053700
     51 H25B         6.6050    -2.0980     0.9730 hc         1 OTK       0.053700
     52 H26          3.8080     3.8930    -1.1550 hc         1 OTK       0.039033
     53 H26A         2.1580     4.3730    -1.5420 hc         1 OTK       0.039033
     54 H26B         2.6650     4.2260     0.1370 hc         1 OTK       0.039033
     55 H28         -2.3000    -3.7450    -0.2500 hc         1 OTK       0.073700
     56 H28A        -1.9740    -3.7210     1.4610 hc         1 OTK       0.073700
     57 H29         -4.4420    -3.9330     1.9330 hc         1 OTK       0.053200
     58 H29A        -4.7620    -3.9740     0.2130 hc         1 OTK       0.053200
     59 H30         -4.7040    -6.2800     1.1650 hc         1 OTK       0.034700
     60 H30A        -3.4060    -6.0700    -0.0070 hc         1 OTK       0.034700
     61 H30B        -3.0520    -6.0270     1.7170 hc         1 OTK       0.034700
     62 H31          0.4540     3.1380     3.5030 hc         1 OTK       0.054033
     63 H31A        -0.7720     1.9630     4.0050 hc         1 OTK       0.054033
     64 H31B         0.8680     1.4340     3.6720 hc         1 OTK       0.054033
     65 H33         -3.0990     4.0910     0.2300 hc         1 OTK       0.070033
     66 H33A        -4.2790     4.0180     1.5560 hc         1 OTK       0.070033
     67 H33B        -2.8210     5.0100     1.6990 hc         1 OTK       0.070033
     68 H34         -3.2480     0.3660    -2.9240 hc         1 OTK       0.058700
     69 H34A        -2.8490    -1.2510    -3.4460 hc         1 OTK       0.058700
     70 H34B        -3.4950    -0.9980    -1.8310 hc         1 OTK       0.058700
     71 O9          -1.2400     2.8600     1.4540 os         1 OTK      -0.455100
     72 C32         -2.4810     2.9150     1.9160 c          1 OTK       0.600100
     73 O4           4.7210    -0.3970     1.2060 o          1 OTK      -0.501000
     74 O8          -3.9620    -1.3930     0.7460 o          1 OTK      -0.491000
@<TRIPOS>BOND
     1     1     2 1   
     2     1     6 1   
     3     1    14 1   
     4     1    33 1   
     5     2     3 1   
     6     2    34 1   
     7     2    35 1   
     8     3     4 1   
     9     3     5 1   
    10     3    36 1   
    11     4    20 1   
    12     5     6 1   
    13     5    25 1   
    14     5    37 1   
    15     6     8 1   
    16     6    38 1   
    17     7     8 1   
    18     7    18 1   
    19     8    10 1   
    20     8    39 1   
    21     9    10 1   
    22     9    40 1   
    23    10    12 1   
    24    10    16 1   
    25    11    12 1   
    26    11    26 1   
    27    12    13 1   
    28    12    41 1   
    29    13    14 1   
    30    13    42 1   
    31    13    43 1   
    32    14    30 1   
    33    14    71 1   
    34    15    72 2   
    35    16    17 1   
    36    16    18 1   
    37    16    32 1   
    38    17    44 1   
    39    18    19 2   
    40    20    21 1   
    41    20    73 2   
    42    21    22 1   
    43    21    23 2   
    44    22    45 1   
    45    22    46 1   
    46    22    47 1   
    47    23    24 1   
    48    23    48 1   
    49    24    49 1   
    50    24    50 1   
    51    24    51 1   
    52    25    52 1   
    53    25    53 1   
    54    25    54 1   
    55    26    27 1   
    56    26    74 2   
    57    27    28 1   
    58    27    55 1   
    59    27    56 1   
    60    28    29 1   
    61    28    57 1   
    62    28    58 1   
    63    29    59 1   
    64    29    60 1   
    65    29    61 1   
    66    30    62 1   
    67    30    63 1   
    68    30    64 1   
    69    31    65 1   
    70    31    66 1   
    71    31    67 1   
    72    31    72 1   
    73    32    68 1   
    74    32    69 1   
    75    32    70 1   
    76    71    72 1   
@<TRIPOS>SUBSTRUCTURE
     1 OTK         1 TEMP              0 ****  ****    0 ROOT
