@<TRIPOS>MOLECULE
OTK
   74    76     1     0     0
SMALL
No Charge or Current Charge


@<TRIPOS>ATOM
      1 C1           0.8420     1.8240     1.0820 c5         1 OTK      -0.062700
      2 C2           2.3160     1.3180     1.2340 c5         1 OTK      -0.099400
      3 C3           3.0660     1.8550    -0.0360 c5         1 OTK       0.173300
      4 O3           3.6050     0.7200    -0.7590 os         1 OTK      -0.445100
      5 C4           1.9680     2.5120    -0.9450 c5         1 OTK      -0.065700
      6 C5           0.6230     1.8260    -0.4860 c5         1 OTK      -0.041700
      7 O5           1.0540     0.2100    -2.3860 os         1 OTK      -0.411100
      8 C6           0.5870     0.3260    -1.0200 c5         1 OTK       0.201300
      9 O6          -1.7330     0.5560    -1.9240 oh         1 OTK      -0.645000
     10 C7          -0.8930    -0.2480    -1.0690 c5         1 OTK       0.157000
     11 O7          -2.4800    -1.4350     0.4610 os         1 OTK      -0.439100
     12 C8          -1.6040    -0.2930     0.3370 c3         1 OTK       0.180300
     13 C9          -0.7040    -0.2660     1.6000 c3         1 OTK      -0.105400
     14 C10         -0.2300     1.1660     2.0280 c3         1 OTK       0.225000
     15 O10         -2.7960     1.0290     3.4110 o          1 OTK      -0.493000
     16 C11         -0.5090    -1.6050    -1.8020 c5         1 OTK       0.050000
     17 O11          0.1730    -2.5420    -0.9360 oh         1 OTK      -0.638000
     18 C12          0.5260    -0.9790    -2.8590 c          1 OTK       0.634100
     19 O12          0.8160    -1.4330    -3.9580 o          1 OTK      -0.493000
     20 C21          4.7330     0.1440    -0.2150 c          1 OTK       0.600300
     21 C22          5.1460    -1.1000    -0.9760 ce         1 OTK      -0.178400
     22 C23          4.2660    -1.5150    -2.1550 c3         1 OTK      -0.043900
     23 C24          6.2390    -1.8470    -0.6620 c2         1 OTK      -0.134200
     24 C25          7.2420    -1.6250     0.4540 c3         1 OTK      -0.064900
     25 C26          1.9520     4.0600    -0.8360 c3         1 OTK      -0.087100
     26 C27         -3.7030    -1.4050    -0.1580 c          1 OTK       0.600100
     27 C28         -4.5310    -2.6500     0.1570 c3         1 OTK      -0.137400
     28 C29         -5.4910    -2.3970     1.3430 c3         1 OTK      -0.068400
     29 C30         -6.3390    -3.6310     1.7070 c3         1 OTK      -0.091100
     30 C31          0.2900     1.1620     3.4950 c3         1 OTK      -0.122100
     31 C33         -3.4450     3.1270     2.4100 c3         1 OTK      -0.158100
     32 C34         -1.6400    -2.4010    -2.5140 c3         1 OTK      -0.118100
     33 H1           0.8380     2.8680     1.4170 hc         1 OTK       0.066700
     34 H2           2.7790     1.7190     2.1430 hc         1 OTK       0.060200
     35 H2A          2.3760     0.2280     1.3240 hc         1 OTK       0.060200
     36 H3           3.8710     2.5670     0.2010 h1         1 OTK       0.070700
     37 H4           2.1820     2.3280    -2.0040 hc         1 OTK       0.092700
     38 H5          -0.2580     2.4060    -0.7870 hc         1 OTK       0.091700
     39 H6           1.2290    -0.3280    -0.4190 h1         1 OTK       0.094700
     40 HO6         -2.6660     0.2770    -1.7520 ho         1 OTK       0.455000
     41 H8          -2.2270     0.6070     0.3950 h1         1 OTK       0.078700
     42 H9          -1.2600    -0.7180     2.4290 hc         1 OTK       0.072200
     43 H9A          0.1610    -0.9240     1.4620 hc         1 OTK       0.072200
     44 HO11         0.3630    -3.3530    -1.4590 ho         1 OTK       0.458000
     45 H23          4.1840    -0.7120    -2.8980 hc         1 OTK       0.047700
     46 H23A         4.6590    -2.3950    -2.6780 hc         1 OTK       0.047700
     47 H23B         3.2530    -1.7670    -1.8200 hc         1 OTK       0.047700
     48 H24          6.4710    -2.7320    -1.2580 ha         1 OTK       0.169000
     49 H25          6.7580    -1.6590     1.4370 hc         1 OTK       0.053700
     50 H25A         8.0190    -2.3990     0.4440 hc         1 OTK       0.053700
     51 H25B         7.7430    -0.6550     0.3520 hc         1 OTK       0.053700
     52 H26          2.8780     4.4850    -1.2430 hc         1 OTK       0.039033
     53 H26A         1.1180     4.4860    -1.4070 hc         1 OTK       0.039033
     54 H26B         1.8650     4.4110     0.1980 hc         1 OTK       0.039033
     55 H28         -5.1160    -2.9270    -0.7270 hc         1 OTK       0.073700
     56 H28A        -3.8560    -3.4650     0.4470 hc         1 OTK       0.073700
     57 H29         -4.9100    -2.0900     2.2230 hc         1 OTK       0.053200
     58 H29A        -6.1610    -1.5620     1.0980 hc         1 OTK       0.053200
     59 H30         -7.0030    -3.4040     2.5490 hc         1 OTK       0.034700
     60 H30A        -6.9580    -3.9410     0.8560 hc         1 OTK       0.034700
     61 H30B        -5.6970    -4.4730     1.9930 hc         1 OTK       0.034700
     62 H31          0.5470     2.1770     3.8210 hc         1 OTK       0.054033
     63 H31A        -0.4440     0.7560     4.1990 hc         1 OTK       0.054033
     64 H31B         1.1850     0.5380     3.5920 hc         1 OTK       0.054033
     65 H33         -3.5990     3.2170     1.3290 hc         1 OTK       0.070033
     66 H33A        -4.3920     3.0400     2.9520 hc         1 OTK       0.070033
     67 H33B        -2.9210     4.0600     2.6470 hc         1 OTK       0.070033
     68 H34         -2.2750    -1.7510    -3.1280 hc         1 OTK       0.058700
     69 H34A        -1.2220    -3.1620    -3.1840 hc         1 OTK       0.058700
     70 H34B        -2.2810    -2.9300    -1.8020 hc         1 OTK       0.058700
     71 O9          -1.3380     2.1040     1.9630 os         1 OTK      -0.455100
     72 C32         -2.5080     1.9600     2.6750 c          1 OTK       0.600100
     73 O4           5.3230     0.5870     0.7620 o          1 OTK      -0.501000
     74 O8          -4.0900    -0.4960    -0.8790 o          1 OTK      -0.491000
@<TRIPOS>BOND
     1     1     2 1   
     2     1     6 1   
     3     1    14 1   
     4     1    33 1   
     5     2     3 1   
     6     2    34 1   
     7     2    35 1   
     8     3     4 1   
     9     3     5 1   
    10     3    36 1   
    11     4    20 1   
    12     5     6 1   
    13     5    25 1   
    14     5    37 1   
    15     6     8 1   
    16     6    38 1   
    17     7     8 1   
    18     7    18 1   
    19     8    10 1   
    20     8    39 1   
    21     9    10 1   
    22     9    40 1   
    23    10    12 1   
    24    10    16 1   
    25    11    12 1   
    26    11    26 1   
    27    12    13 1   
    28    12    41 1   
    29    13    14 1   
    30    13    42 1   
    31    13    43 1   
    32    14    30 1   
    33    14    71 1   
    34    15    72 2   
    35    16    17 1   
    36    16    18 1   
    37    16    32 1   
    38    17    44 1   
    39    18    19 2   
    40    20    21 1   
    41    20    73 2   
    42    21    22 1   
    43    21    23 2   
    44    22    45 1   
    45    22    46 1   
    46    22    47 1   
    47    23    24 1   
    48    23    48 1   
    49    24    49 1   
    50    24    50 1   
    51    24    51 1   
    52    25    52 1   
    53    25    53 1   
    54    25    54 1   
    55    26    27 1   
    56    26    74 2   
    57    27    28 1   
    58    27    55 1   
    59    27    56 1   
    60    28    29 1   
    61    28    57 1   
    62    28    58 1   
    63    29    59 1   
    64    29    60 1   
    65    29    61 1   
    66    30    62 1   
    67    30    63 1   
    68    30    64 1   
    69    31    65 1   
    70    31    66 1   
    71    31    67 1   
    72    31    72 1   
    73    32    68 1   
    74    32    69 1   
    75    32    70 1   
    76    71    72 1   
@<TRIPOS>SUBSTRUCTURE
     1 OTK         1 TEMP              0 ****  ****    0 ROOT
