@<TRIPOS>MOLECULE
OTL
   57    62     1     0     0
SMALL
abcg2


@<TRIPOS>ATOM
      1 C5         -10.8190    22.4550   -15.7500 cc         1 OTL       0.237900
      2 C6         -11.5700    21.7850   -14.8090 cd         1 OTL      -0.103000
      3 C7         -11.1560    20.8570   -13.7750 cd         1 OTL      -0.141000
      4 C8          -9.8870    20.8260   -13.1460 cd         1 OTL       0.270900
      5 C13        -11.4930    18.7120    -9.9360 c3         1 OTL      -0.057400
      6 C15        -14.0340    19.2660    -9.8200 cx         1 OTL      -0.129900
      7 C17        -10.3050    17.0600   -11.4690 ca         1 OTL      -0.118600
      8 C20         -8.5040    14.9890   -11.8660 cp         1 OTL      -0.014000
      9 C21         -9.5260    15.2370   -12.7610 ca         1 OTL      -0.161000
     10 C24         -7.5470    13.8880   -12.1270 cp         1 OTL      -0.052000
     11 C11        -11.8430    19.8030   -13.1890 cc         1 OTL      -0.127000
     12 C12        -11.3250    18.1590   -11.3540 c3         1 OTL       0.168600
     13 C14        -12.6040    19.7290    -9.8560 cx         1 OTL      -0.131700
     14 C16        -13.4000    19.8650    -8.5890 cx         1 OTL      -0.129900
     15 C18         -9.2940    16.8230   -10.5560 ca         1 OTL      -0.057000
     16 C19         -8.3860    15.7940   -10.7360 ca         1 OTL      -0.113000
     17 C25         -7.9750    12.5660   -12.1850 ca         1 OTL       0.200000
     18 C27         -7.0900    11.5090   -12.3700 ca         1 OTL       0.080000
     19 C29         -5.7350    11.7660   -12.5130 ca         1 OTL      -0.061000
     20 C3         -12.8380    23.1040   -16.0450 cd         1 OTL       0.387400
     21 C30         -5.2760    13.0740   -12.4780 ca         1 OTL      -0.110000
     22 C31         -6.1760    14.1130   -12.2900 ca         1 OTL       0.039800
     23 C33         -4.8050    16.0360   -11.4470 cc         1 OTL       0.399400
     24 F26         -9.2800    12.3020   -12.0250 f          1 OTL      -0.145000
     25 N10        -11.0060    19.2330   -12.2960 na         1 OTL       0.122800
     26 N2         -12.8700    22.2180   -15.0160 na         1 OTL      -0.175500
     27 N22        -10.4090    16.2520   -12.5740 na         1 OTL       0.452300
     28 N32         -5.6840    15.4500   -12.2770 na         1 OTL      -0.021500
     29 N34         -4.6550    17.2880   -11.8130 nd         1 OTL      -0.376000
     30 N35         -5.4630    17.4590   -12.8910 nd         1 OTL      -0.026000
     31 N36         -6.0840    16.3730   -13.1810 nc         1 OTL      -0.174800
     32 N4         -11.6170    23.2730   -16.5140 nc         1 OTL      -0.672000
     33 N9          -9.8070    19.8470   -12.2520 nc         1 OTL      -0.530800
     34 O23        -11.3410    16.4480   -13.4470 o          1 OTL      -0.518000
     35 CL28        -7.6940     9.8870   -12.4160 cl         1 OTL      -0.144000
     36 H1          -9.7560    22.3780   -15.9130 h4         1 OTL       0.040100
     37 H2          -9.0470    21.4830   -13.3130 h4         1 OTL       0.044100
     38 H3         -11.7120    17.8720    -9.2710 hc         1 OTL       0.061200
     39 H4         -10.5560    19.1600    -9.5990 hc         1 OTL       0.061200
     40 H5         -14.7750    19.8490   -10.3500 hc         1 OTL       0.072700
     41 H6         -14.2110    18.1970    -9.8240 hc         1 OTL       0.072700
     42 H7          -9.6850    14.6670   -13.6630 h4         1 OTL       0.179000
     43 H8         -13.8600    21.8990   -13.2000 h1         1 OTL       0.050367
     44 H9         -14.8570    22.5330   -14.5230 h1         1 OTL       0.050367
     45 H10        -14.3720    20.8280   -14.5210 h1         1 OTL       0.050367
     46 H11        -12.8340    19.4150   -13.3450 h4         1 OTL       0.158000
     47 H12        -12.2780    17.7560   -11.6930 h1         1 OTL       0.098700
     48 H13        -12.4170    20.6480   -10.3980 hc         1 OTL       0.089700
     49 H14        -13.7120    20.8550    -8.2860 hc         1 OTL       0.072700
     50 H15        -13.1580    19.1960    -7.7730 hc         1 OTL       0.072700
     51 H16         -9.2180    17.4610    -9.6890 ha         1 OTL       0.144000
     52 H17         -7.6030    15.6180   -10.0110 ha         1 OTL       0.131000
     53 H18         -5.0470    10.9460   -12.6620 ha         1 OTL       0.147000
     54 H19        -13.7330    23.5900   -16.4030 h5         1 OTL       0.050100
     55 H20         -4.2260    13.2910   -12.6130 ha         1 OTL       0.143000
     56 C1         -14.0580    21.8400   -14.2690 c3         1 OTL       0.062900
     57 H21         -4.3290    15.5360   -10.6210 h5         1 OTL       0.076100
@<TRIPOS>BOND
     1     1     2 2   
     2     1    32 1   
     3     1    36 1   
     4     2     3 1   
     5     2    26 1   
     6     3     4 1   
     7     3    11 2   
     8     4    33 2   
     9     4    37 1   
    10     5    12 1   
    11     5    13 1   
    12     5    38 1   
    13     5    39 1   
    14     6    13 1   
    15     6    14 1   
    16     6    40 1   
    17     6    41 1   
    18     7    12 1   
    19     7    15 ar  
    20     7    27 2   
    21     8     9 ar  
    22     8    10 1   
    23     8    16 ar  
    24     9    27 1   
    25     9    42 1   
    26    10    17 ar  
    27    10    22 ar  
    28    11    25 1   
    29    11    46 1   
    30    12    25 1   
    31    12    47 1   
    32    13    14 1   
    33    13    48 1   
    34    14    49 1   
    35    14    50 1   
    36    15    16 ar  
    37    15    51 1   
    38    16    52 1   
    39    17    18 ar  
    40    17    24 1   
    41    18    19 ar  
    42    18    35 1   
    43    19    21 ar  
    44    19    53 1   
    45    20    26 1   
    46    20    32 2   
    47    20    54 1   
    48    21    22 ar  
    49    21    55 1   
    50    22    28 1   
    51    23    28 1   
    52    23    29 2   
    53    23    57 1   
    54    25    33 1   
    55    26    56 1   
    56    27    34 1   
    57    28    31 1   
    58    29    30 1   
    59    30    31 2   
    60    43    56 1   
    61    44    56 1   
    62    45    56 1   
@<TRIPOS>SUBSTRUCTURE
     1 OTL         1 TEMP              0 ****  ****    0 ROOT
