@<TRIPOS>MOLECULE
OTL
   57    62     1     0     0
SMALL
No Charge or Current Charge


@<TRIPOS>ATOM
      1 C5         -10.4650    23.0940   -14.7450 cc         1 OTL       0.237900
      2 C6         -11.1840    21.9630   -14.4640 cd         1 OTL      -0.103000
      3 C7         -10.9570    21.1330   -13.3050 cd         1 OTL      -0.141000
      4 C8          -9.9840    21.3450   -12.3060 cd         1 OTL       0.270900
      5 C13        -11.6480    18.6290    -9.5190 c3         1 OTL      -0.057400
      6 C15        -14.2340    19.1260    -9.2730 cx         1 OTL      -0.129900
      7 C17        -10.4300    17.2230   -11.2970 ca         1 OTL      -0.118600
      8 C20         -8.6480    15.1180   -11.8050 cp         1 OTL      -0.014000
      9 C21         -9.9300    15.0970   -12.4130 ca         1 OTL      -0.161000
     10 C24         -7.6900    14.0020   -12.0750 cp         1 OTL      -0.052000
     11 C11        -11.6490    19.9990   -12.9900 cc         1 OTL      -0.127000
     12 C12        -11.4200    18.3700   -11.0340 c3         1 OTL       0.168600
     13 C14        -12.7990    19.5950    -9.2370 cx         1 OTL      -0.131700
     14 C16        -13.5940    19.5050    -7.9560 cx         1 OTL      -0.129900
     15 C18         -9.1590    17.2280   -10.6950 ca         1 OTL      -0.057000
     16 C19         -8.2740    16.1790   -10.9540 ca         1 OTL      -0.113000
     17 C25         -7.9560    12.6990   -11.5810 ca         1 OTL       0.200000
     18 C27         -7.0620    11.6330   -11.8150 ca         1 OTL       0.080000
     19 C29         -5.8830    11.8440   -12.5500 ca         1 OTL      -0.061000
     20 C3         -11.8990    22.8960   -16.3450 cd         1 OTL       0.387400
     21 C30         -5.5940    13.1200   -13.0610 ca         1 OTL      -0.110000
     22 C31         -6.4920    14.1750   -12.8260 ca         1 OTL       0.039800
     23 C33         -5.3490    16.3380   -12.8690 cc         1 OTL       0.399400
     24 F26         -9.0810    12.4730   -10.8610 f          1 OTL      -0.145000
     25 N10        -11.0530    19.5860   -11.7990 na         1 OTL       0.122800
     26 N2         -12.1110    21.8230   -15.4860 na         1 OTL      -0.175500
     27 N22        -10.7740    16.1890   -12.1840 na         1 OTL       0.452300
     28 N32         -6.2900    15.4630   -13.3230 na         1 OTL      -0.021500
     29 N34         -5.4340    17.3890   -13.6670 nd         1 OTL      -0.376000
     30 N35         -6.4180    17.1010   -14.5990 nd         1 OTL      -0.026000
     31 N36         -6.9360    15.9120   -14.4180 nc         1 OTL      -0.174800
     32 N4         -10.9070    23.6680   -15.9050 nc         1 OTL      -0.672000
     33 N9         -10.0170    20.4110   -11.3760 nc         1 OTL      -0.530800
     34 O23        -11.8340    16.2440   -12.8240 o          1 OTL      -0.518000
     35 Cl28        -7.4050    10.0210   -11.1870 cl         1 OTL      -0.144000
     36 H1          -9.6520    23.5390   -14.1870 h4         1 OTL       0.040100
     37 H2          -9.2560    22.1450   -12.2320 h4         1 OTL       0.044100
     38 H3         -11.8490    17.6660    -9.0330 hc         1 OTL       0.061200
     39 H4         -10.7320    19.0170    -9.0600 hc         1 OTL       0.061200
     40 H5         -14.9770    19.8030    -9.6900 hc         1 OTL       0.072700
     41 H6         -14.4260    18.0710    -9.4570 hc         1 OTL       0.072700
     42 H7         -10.2680    14.3090   -13.0830 h4         1 OTL       0.179000
     43 H8         -13.8160    20.7770   -14.8160 h1         1 OTL       0.050367
     44 H9         -13.6970    20.9670   -16.5870 h1         1 OTL       0.050367
     45 H10        -12.6380    19.7980   -15.7510 h1         1 OTL       0.050367
     46 H11        -12.4610    19.4630   -13.4600 h4         1 OTL       0.158000
     47 H12        -12.4030    18.0690   -11.4140 h1         1 OTL       0.098700
     48 H13        -12.6040    20.5980    -9.6140 hc         1 OTL       0.089700
     49 H14        -13.9070    20.4360    -7.4890 hc         1 OTL       0.072700
     50 H15        -13.3570    18.7040    -7.2590 hc         1 OTL       0.072700
     51 H16         -8.8540    18.0380   -10.0370 ha         1 OTL       0.144000
     52 H17         -7.2920    16.1790   -10.4860 ha         1 OTL       0.131000
     53 H18         -5.1980    11.0180   -12.7280 ha         1 OTL       0.147000
     54 H19        -12.4880    23.0430   -17.2430 h5         1 OTL       0.050100
     55 H20         -4.6890    13.2860   -13.6420 ha         1 OTL       0.143000
     56 C1         -13.1270    20.7760   -15.6690 c3         1 OTL       0.062900
     57 H21         -4.6920    16.1700   -12.0260 h5         1 OTL       0.076100
@<TRIPOS>BOND
     1     1     2 2   
     2     1    32 1   
     3     1    36 1   
     4     2     3 1   
     5     2    26 1   
     6     3     4 1   
     7     3    11 2   
     8     4    33 2   
     9     4    37 1   
    10     5    12 1   
    11     5    13 1   
    12     5    38 1   
    13     5    39 1   
    14     6    13 1   
    15     6    14 1   
    16     6    40 1   
    17     6    41 1   
    18     7    12 1   
    19     7    15 ar  
    20     7    27 2   
    21     8     9 ar  
    22     8    10 1   
    23     8    16 ar  
    24     9    27 1   
    25     9    42 1   
    26    10    17 ar  
    27    10    22 ar  
    28    11    25 1   
    29    11    46 1   
    30    12    25 1   
    31    12    47 1   
    32    13    14 1   
    33    13    48 1   
    34    14    49 1   
    35    14    50 1   
    36    15    16 ar  
    37    15    51 1   
    38    16    52 1   
    39    17    18 ar  
    40    17    24 1   
    41    18    19 ar  
    42    18    35 1   
    43    19    21 ar  
    44    19    53 1   
    45    20    26 1   
    46    20    32 2   
    47    20    54 1   
    48    21    22 ar  
    49    21    55 1   
    50    22    28 1   
    51    23    28 1   
    52    23    29 2   
    53    23    57 1   
    54    25    33 1   
    55    26    56 1   
    56    27    34 1   
    57    28    31 1   
    58    29    30 1   
    59    30    31 2   
    60    43    56 1   
    61    44    56 1   
    62    45    56 1   
@<TRIPOS>SUBSTRUCTURE
     1 OTL         1 TEMP              0 ****  ****    0 ROOT
