@<TRIPOS>MOLECULE
OTM
   60    64     1     0     0
SMALL
No Charge or Current Charge


@<TRIPOS>ATOM
      1 C24         -1.4320     0.5290    -0.1410 c          1 OTM       0.608300
      2 O25         -1.5330     1.4890    -0.8900 o          1 OTM      -0.588100
      3 C26         -2.5590    -0.4000     0.1400 ce         1 OTM      -0.270200
      4 C27         -3.8120    -0.2760    -0.3920 cf         1 OTM      -0.098200
      5 C28         -5.0100    -1.1230    -0.1670 ca         1 OTM      -0.024800
      6 C29         -5.0620    -1.9820     0.9540 ca         1 OTM      -0.090000
      7 C30         -6.1930    -2.7760     1.2000 ca         1 OTM       0.129000
      8 C31         -7.2930    -2.7250     0.3330 ca         1 OTM      -0.089000
      9 C32         -7.2580    -1.8790    -0.7860 ca         1 OTM      -0.087000
     10 C33         -6.1260    -1.0790    -1.0450 ca         1 OTM       0.005800
     11 N34         -6.1290    -0.2790    -2.1860 na         1 OTM      -0.005500
     12 C35         -5.4220    -0.5300    -3.3250 cc         1 OTM       0.395400
     13 N36         -5.6990     0.4760    -4.1350 nd         1 OTM      -0.378000
     14 N37         -6.5730     1.3080    -3.4530 nd         1 OTM      -0.038000
     15 N38         -6.8460     0.8600    -2.2540 nc         1 OTM      -0.188800
     16 Cl          -6.2340    -3.8310     2.6060 cl         1 OTM      -0.177000
     17 N23         -0.2620     0.2100     0.5060 ns         1 OTM      -0.491900
     18 C8           0.9810     1.0220     0.4700 c3         1 OTM       0.031700
     19 C9           2.2350     0.1060     0.3640 c          1 OTM       0.598100
     20 O10          2.1790    -1.1050     0.5620 o          1 OTM      -0.576100
     21 C7           1.0650     1.9570     1.7070 c3         1 OTM      -0.045100
     22 C4          -0.1480     2.8680     1.8620 ca         1 OTM      -0.089300
     23 C3          -1.1850     2.5310     2.7560 ca         1 OTM      -0.100000
     24 C5          -0.2450     4.0530     1.1060 ca         1 OTM      -0.100000
     25 C2          -2.3070     3.3670     2.8890 ca         1 OTM      -0.104000
     26 C6          -1.3670     4.8900     1.2410 ca         1 OTM      -0.104000
     27 C1          -2.3980     4.5470     2.1320 ca         1 OTM      -0.099000
     28 N11          3.3990     0.7850     0.0210 ns         1 OTM      -0.140000
     29 C12          4.7420     0.3550    -0.1680 ca         1 OTM       0.004000
     30 C13          5.6820     1.3180    -0.5740 ca         1 OTM      -0.155500
     31 C14          7.0280     0.9720    -0.7800 ca         1 OTM      -0.045500
     32 C15          7.4670    -0.3540    -0.5800 ca         1 OTM      -0.175500
     33 C16          6.5240    -1.3220    -0.1690 ca         1 OTM      -0.045500
     34 C17          5.1770    -0.9710     0.0350 ca         1 OTM      -0.155500
     35 C18          8.8780    -0.7080    -0.7970 cc         1 OTM       0.468000
     36 N19          9.4370    -1.9440    -0.6440 na         1 OTM      -0.215700
     37 N20         10.7630    -1.9070    -0.9280 nc         1 OTM      -0.204800
     38 N21         10.9910    -0.6620    -1.2480 nd         1 OTM      -0.040000
     39 N22          9.8480     0.1000    -1.1760 nd         1 OTM      -0.393000
     40 H26         -2.3360    -1.2250     0.8110 ha         1 OTM       0.180000
     41 H27         -3.9730     0.5760    -1.0570 ha         1 OTM       0.218000
     42 H29         -4.2350    -2.0310     1.6550 ha         1 OTM       0.138000
     43 H31         -8.1680    -3.3400     0.5280 ha         1 OTM       0.143000
     44 H32         -8.1130    -1.8470    -1.4590 ha         1 OTM       0.138000
     45 H35         -4.7790    -1.3860    -3.4870 h5         1 OTM       0.078100
     46 H23         -0.2660    -0.6330     1.0690 hn         1 OTM       0.329500
     47 H8           0.9710     1.6430    -0.4360 h1         1 OTM       0.098700
     48 H71C         1.9730     2.5710     1.6380 hc         1 OTM       0.059200
     49 H72C         1.1890     1.3430     2.6080 hc         1 OTM       0.059200
     50 H3          -1.1250     1.6170     3.3430 ha         1 OTM       0.106500
     51 H5           0.5460     4.3240     0.4110 ha         1 OTM       0.106500
     52 H2          -3.1050     3.1000     3.5780 ha         1 OTM       0.115000
     53 H6          -1.4370     5.8030     0.6530 ha         1 OTM       0.115000
     54 H1          -3.2670     5.1940     2.2350 ha         1 OTM       0.116000
     55 H11          3.2700     1.7790    -0.1200 hn         1 OTM       0.159000
     56 H13          5.3700     2.3480    -0.7350 ha         1 OTM       0.136000
     57 H17          4.4920    -1.7490     0.3550 ha         1 OTM       0.136000
     58 H14          7.7280     1.7430    -1.0950 ha         1 OTM       0.126500
     59 H16          6.8220    -2.3550    -0.0020 ha         1 OTM       0.126500
     60 H19          8.9670    -2.7930    -0.3600 hn         1 OTM       0.386000
@<TRIPOS>BOND
     1     1     2 2   
     2     1     3 1   
     3     1    17 1   
     4     3     4 2   
     5     3    40 1   
     6     4     5 1   
     7     4    41 1   
     8     5     6 ar  
     9     5    10 ar  
    10     6     7 ar  
    11     6    42 1   
    12     7     8 ar  
    13     7    16 1   
    14     8     9 ar  
    15     8    43 1   
    16     9    10 ar  
    17     9    44 1   
    18    10    11 1   
    19    11    12 1   
    20    11    15 1   
    21    12    13 2   
    22    12    45 1   
    23    13    14 1   
    24    14    15 2   
    25    17    18 1   
    26    17    46 1   
    27    18    19 1   
    28    18    21 1   
    29    18    47 1   
    30    19    20 2   
    31    19    28 1   
    32    21    22 1   
    33    21    48 1   
    34    21    49 1   
    35    22    23 ar  
    36    22    24 ar  
    37    23    25 ar  
    38    23    50 1   
    39    24    26 ar  
    40    24    51 1   
    41    25    27 ar  
    42    25    52 1   
    43    26    27 ar  
    44    26    53 1   
    45    27    54 1   
    46    28    29 1   
    47    28    55 1   
    48    29    30 ar  
    49    29    34 ar  
    50    30    31 ar  
    51    30    56 1   
    52    31    32 ar  
    53    31    58 1   
    54    32    33 ar  
    55    32    35 1   
    56    33    34 ar  
    57    33    59 1   
    58    34    57 1   
    59    35    36 1   
    60    35    39 2   
    61    36    37 1   
    62    36    60 1   
    63    37    38 2   
    64    38    39 1   
@<TRIPOS>SUBSTRUCTURE
     1 OTM         1 TEMP              0 ****  ****    0 ROOT
