@<TRIPOS>MOLECULE
OTM
   60    64     1     0     0
SMALL
abcg2


@<TRIPOS>ATOM
      1 C24         -1.3080     0.5590    -0.0360 c          1 OTM       0.608300
      2 O25         -1.3580     1.4300    -0.8920 o          1 OTM      -0.588100
      3 C26         -2.4520    -0.3380     0.2640 ce         1 OTM      -0.270200
      4 C27         -3.5970    -0.2210    -0.4090 cf         1 OTM      -0.098200
      5 C28         -4.7890    -1.0410    -0.1910 ca         1 OTM      -0.024800
      6 C29         -4.9690    -1.7680     0.9860 ca         1 OTM      -0.090000
      7 C30         -6.0880    -2.5600     1.1600 ca         1 OTM       0.129000
      8 C31         -7.0660    -2.6570     0.1820 ca         1 OTM      -0.089000
      9 C32         -6.9110    -1.9290    -0.9840 ca         1 OTM      -0.087000
     10 C33         -5.7920    -1.1330    -1.1610 ca         1 OTM       0.005800
     11 N34         -5.6720    -0.4150    -2.3790 na         1 OTM      -0.005500
     12 C35         -5.3800    -0.8600    -3.6050 cc         1 OTM       0.395400
     13 N36         -5.4090     0.1570    -4.4220 nd         1 OTM      -0.378000
     14 N37         -5.7220     1.2190    -3.6760 nd         1 OTM      -0.038000
     15 N38         -5.8860     0.8970    -2.4570 nc         1 OTM      -0.188800
     16 CL          -6.2730    -3.4420     2.6330 cl         1 OTM      -0.177000
     17 N23         -0.2160     0.3120     0.7150 ns         1 OTM      -0.491900
     18 C8           0.9620     1.1320     0.6860 c3         1 OTM       0.031700
     19 C9           2.2000     0.2450     0.6000 c          1 OTM       0.598100
     20 O10          2.2340    -0.8530     1.1200 o          1 OTM      -0.576100
     21 C7           1.0660     2.0180     1.9480 c3         1 OTM      -0.045100
     22 C4          -0.1500     2.8830     2.1040 ca         1 OTM      -0.089300
     23 C3          -1.2330     2.4520     2.8660 ca         1 OTM      -0.100000
     24 C5          -0.2390     4.1100     1.4510 ca         1 OTM      -0.100000
     25 C2          -2.3810     3.2250     2.9700 ca         1 OTM      -0.104000
     26 C6          -1.3830     4.8880     1.5560 ca         1 OTM      -0.104000
     27 C1          -2.4600     4.4460     2.3140 ca         1 OTM      -0.099000
     28 N11          3.2360     0.8270    -0.0530 ns         1 OTM      -0.140000
     29 C12          4.5340     0.3600    -0.2460 ca         1 OTM       0.004000
     30 C13          5.4040     1.1980    -0.9510 ca         1 OTM      -0.155500
     31 C14          6.7070     0.8210    -1.1950 ca         1 OTM      -0.045500
     32 C15          7.1840    -0.4090    -0.7410 ca         1 OTM      -0.175500
     33 C16          6.3160    -1.2400    -0.0390 ca         1 OTM      -0.045500
     34 C17          5.0050    -0.8720     0.2110 ca         1 OTM      -0.155500
     35 C18          8.5620    -0.7840    -1.0090 cc         1 OTM       0.468000
     36 N19          9.1620    -1.9290    -0.6700 na         1 OTM      -0.215700
     37 N20         10.4170    -1.9030    -1.0850 nc         1 OTM      -0.204800
     38 N21         10.5810    -0.7780    -1.6580 nd         1 OTM      -0.040000
     39 N22          9.4630    -0.0570    -1.6340 nd         1 OTM      -0.393000
     40 H26         -2.3200    -1.0840     1.0400 ha         1 OTM       0.180000
     41 H27         -3.6480     0.5340    -1.1830 ha         1 OTM       0.218000
     42 H29         -4.2360    -1.7040     1.7780 ha         1 OTM       0.138000
     43 H31         -7.9390    -3.2770     0.3270 ha         1 OTM       0.143000
     44 H32         -7.6660    -1.9790    -1.7570 ha         1 OTM       0.138000
     45 H35         -5.1560    -1.8870    -3.8410 h5         1 OTM       0.078100
     46 H23         -0.2540    -0.4200     1.4070 hn         1 OTM       0.329500
     47 H8           0.8950     1.7740    -0.1930 h1         1 OTM       0.098700
     48 H71C         1.9660     2.6320     1.8750 hc         1 OTM       0.059200
     49 H72C         1.1870     1.3740     2.8220 hc         1 OTM       0.059200
     50 H3          -1.1760     1.5050     3.3890 ha         1 OTM       0.106500
     51 H5           0.5960     4.4630     0.8570 ha         1 OTM       0.106500
     52 H2          -3.2130     2.8750     3.5680 ha         1 OTM       0.115000
     53 H6          -1.4340     5.8420     1.0460 ha         1 OTM       0.115000
     54 H1          -3.3520     5.0530     2.3950 ha         1 OTM       0.116000
     55 H11          3.0460     1.7250    -0.4720 hn         1 OTM       0.159000
     56 H13          5.0540     2.1570    -1.3130 ha         1 OTM       0.136000
     57 H17          4.3700    -1.5460     0.7590 ha         1 OTM       0.136000
     58 H14          7.3560     1.4890    -1.7440 ha         1 OTM       0.126500
     59 H16          6.6440    -2.2030     0.3320 ha         1 OTM       0.126500
     60 H19          8.8050    -2.7400    -0.1840 hn         1 OTM       0.386000
@<TRIPOS>BOND
     1     1     2 2   
     2     1     3 1   
     3     1    17 1   
     4     3     4 2   
     5     3    40 1   
     6     4     5 1   
     7     4    41 1   
     8     5     6 ar  
     9     5    10 ar  
    10     6     7 ar  
    11     6    42 1   
    12     7     8 ar  
    13     7    16 1   
    14     8     9 ar  
    15     8    43 1   
    16     9    10 ar  
    17     9    44 1   
    18    10    11 1   
    19    11    12 1   
    20    11    15 1   
    21    12    13 2   
    22    12    45 1   
    23    13    14 1   
    24    14    15 2   
    25    17    18 1   
    26    17    46 1   
    27    18    19 1   
    28    18    21 1   
    29    18    47 1   
    30    19    20 2   
    31    19    28 1   
    32    21    22 1   
    33    21    48 1   
    34    21    49 1   
    35    22    23 ar  
    36    22    24 ar  
    37    23    25 ar  
    38    23    50 1   
    39    24    26 ar  
    40    24    51 1   
    41    25    27 ar  
    42    25    52 1   
    43    26    27 ar  
    44    26    53 1   
    45    27    54 1   
    46    28    29 1   
    47    28    55 1   
    48    29    30 ar  
    49    29    34 ar  
    50    30    31 ar  
    51    30    56 1   
    52    31    32 ar  
    53    31    58 1   
    54    32    33 ar  
    55    32    35 1   
    56    33    34 ar  
    57    33    59 1   
    58    34    57 1   
    59    35    36 1   
    60    35    39 2   
    61    36    37 1   
    62    36    60 1   
    63    37    38 2   
    64    38    39 1   
@<TRIPOS>SUBSTRUCTURE
     1 OTM         1 TEMP              0 ****  ****    0 ROOT
