@<TRIPOS>MOLECULE
OTN
   36    37     1     0     0
SMALL
abcg2


@<TRIPOS>ATOM
      1 O2          -4.6450    -1.8630     0.2430 o          1 OTN      -0.393000
      2 N1          -3.6880    -1.3730    -0.3090 no         1 OTN       0.692200
      3 O3          -3.0880    -1.8980    -1.2200 o          1 OTN      -0.393000
      4 C2          -3.2270    -0.0750     0.1310 ca         1 OTN      -0.168200
      5 C3          -4.1600     0.7660     0.7240 ca         1 OTN      -0.045000
      6 C4          -3.7810     2.0300     1.1310 ca         1 OTN      -0.121000
      7 C5          -2.4680     2.4380     0.9390 ca         1 OTN      -0.061000
      8 C6          -1.5400     1.5960     0.3510 ca         1 OTN      -0.121000
      9 C1          -1.8920     0.3060    -0.0530 ca         1 OTN      -0.054000
     10 S01         -0.6880    -0.7890    -0.7370 ss         1 OTN      -0.034000
     11 C12          0.8230    -0.2400     0.0970 c6         1 OTN       0.223300
     12 O5           1.3900     0.8140    -0.6230 os         1 OTN      -0.412000
     13 C10          2.5570     1.3250     0.0020 c6         1 OTN       0.159300
     14 C11          2.9680     2.5820    -0.7330 c3         1 OTN       0.172600
     15 O6           1.9790     3.5600    -0.5150 oh         1 OTN      -0.724000
     16 C9           3.6440     0.2620     0.0390 c6         1 OTN       0.153300
     17 O4           4.0280    -0.0410    -1.2780 oh         1 OTN      -0.708000
     18 C8           3.1020    -0.9610     0.7750 c6         1 OTN       0.142300
     19 O7           4.0890    -1.9580     0.7330 oh         1 OTN      -0.667000
     20 C7           1.7850    -1.4350     0.1630 c6         1 OTN       0.118300
     21 O1           1.2900    -2.4560     0.9900 oh         1 OTN      -0.725000
     22 H1          -5.1820     0.4390     0.8510 ha         1 OTN       0.149000
     23 H2          -4.5060     2.6920     1.5810 ha         1 OTN       0.130000
     24 H3          -2.1610     3.4320     1.2380 ha         1 OTN       0.126000
     25 H4          -0.5370     1.9620     0.1850 ha         1 OTN       0.154000
     26 H5           0.5610     0.0640     1.1220 h2         1 OTN       0.066700
     27 H6           2.3320     1.5970     1.0450 h1         1 OTN       0.049700
     28 H7           3.9450     2.8960    -0.3430 h1         1 OTN       0.042200
     29 H8           3.0990     2.3650    -1.7980 h1         1 OTN       0.042200
     30 H9           2.1920     4.3250    -1.0580 ho         1 OTN       0.509000
     31 H10          4.4890     0.6610     0.6210 h1         1 OTN       0.050700
     32 H11          4.6510    -0.7750    -1.2480 ho         1 OTN       0.524000
     33 H12          2.8950    -0.6520     1.8120 h1         1 OTN       0.047700
     34 H13          3.7470    -2.7530     1.1560 ho         1 OTN       0.471000
     35 H14          1.9760    -1.7950    -0.8580 h1         1 OTN       0.075700
     36 H15          0.6060    -2.9420     0.5200 ho         1 OTN       0.528000
@<TRIPOS>BOND
     1     1     2 1   
     2     2     3 1   
     3     2     4 1   
     4     4     5 ar  
     5     4     9 ar  
     6     5     6 ar  
     7     5    22 1   
     8     6     7 ar  
     9     6    23 1   
    10     7     8 ar  
    11     7    24 1   
    12     8     9 ar  
    13     8    25 1   
    14     9    10 1   
    15    10    11 1   
    16    11    12 1   
    17    11    20 1   
    18    11    26 1   
    19    12    13 1   
    20    13    14 1   
    21    13    16 1   
    22    13    27 1   
    23    14    15 1   
    24    14    28 1   
    25    14    29 1   
    26    15    30 1   
    27    16    17 1   
    28    16    18 1   
    29    16    31 1   
    30    17    32 1   
    31    18    19 1   
    32    18    20 1   
    33    18    33 1   
    34    19    34 1   
    35    20    21 1   
    36    20    35 1   
    37    21    36 1   
@<TRIPOS>SUBSTRUCTURE
     1 OTN         1 TEMP              0 ****  ****    0 ROOT
