@<TRIPOS>MOLECULE
OTN
   36    37     1     0     0
SMALL
No Charge or Current Charge


@<TRIPOS>ATOM
      1 O2          -4.2000    -2.0620     1.0990 o          1 OTN      -0.393000
      2 N1          -3.6210    -1.5420     0.1360 no         1 OTN       0.692200
      3 O3          -3.5340    -2.0730    -0.9780 o          1 OTN      -0.393000
      4 C2          -3.2310    -0.1060     0.2620 ca         1 OTN      -0.168200
      5 C3          -4.1440     0.7920     0.8590 ca         1 OTN      -0.045000
      6 C4          -3.8220     2.1520     0.9910 ca         1 OTN      -0.121000
      7 C5          -2.5870     2.6280     0.5280 ca         1 OTN      -0.061000
      8 C6          -1.6670     1.7430    -0.0560 ca         1 OTN      -0.121000
      9 C1          -1.9700     0.3720    -0.1870 ca         1 OTN      -0.054000
     10 S01         -0.7490    -0.7440    -0.8980 ss         1 OTN      -0.034000
     11 C12          0.8040    -0.3280     0.0230 c6         1 OTN       0.223300
     12 O5           1.4050     0.8430    -0.5740 os         1 OTN      -0.412000
     13 C10          2.5610     1.3410     0.1480 c6         1 OTN       0.159300
     14 C11          3.0040     2.6990    -0.4870 c3         1 OTN       0.172600
     15 O6           1.9680     3.7050    -0.4560 oh         1 OTN      -0.724000
     16 C9           3.7040     0.2740     0.1580 c6         1 OTN       0.153300
     17 O4           4.2330     0.0100    -1.1580 oh         1 OTN      -0.708000
     18 C8           3.1400    -1.0520     0.7550 c6         1 OTN       0.142300
     19 O7           4.1280    -2.0970     0.6830 oh         1 OTN      -0.667000
     20 C7           1.8370    -1.5010     0.0190 c6         1 OTN       0.118300
     21 O1           1.3180    -2.6980     0.6490 oh         1 OTN      -0.725000
     22 H1          -5.1110     0.4380     1.2150 ha         1 OTN       0.149000
     23 H2          -4.5330     2.8380     1.4470 ha         1 OTN       0.130000
     24 H3          -2.3400     3.6840     0.6240 ha         1 OTN       0.126000
     25 H4          -0.7190     2.1350    -0.4130 ha         1 OTN       0.154000
     26 H5           0.5010    -0.1100     1.0570 h2         1 OTN       0.066700
     27 H6           2.2600     1.5450     1.1860 h1         1 OTN       0.049700
     28 H7           3.8900     3.0550     0.0570 h1         1 OTN       0.042200
     29 H8           3.3130     2.5110    -1.5240 h1         1 OTN       0.042200
     30 H9           2.3150     4.4890    -0.9430 ho         1 OTN       0.509000
     31 H10          4.5080     0.6340     0.8170 h1         1 OTN       0.050700
     32 H11          4.6620    -0.8760    -1.0730 ho         1 OTN       0.524000
     33 H12          2.8840    -0.8610     1.8080 h1         1 OTN       0.047700
     34 H13          3.6340    -2.9240     0.8960 ho         1 OTN       0.471000
     35 H14          2.0920    -1.7120    -1.0310 h1         1 OTN       0.075700
     36 H15          0.6540    -3.0960     0.0360 ho         1 OTN       0.528000
@<TRIPOS>BOND
     1     1     2 1   
     2     2     3 1   
     3     2     4 1   
     4     4     5 ar  
     5     4     9 ar  
     6     5     6 ar  
     7     5    22 1   
     8     6     7 ar  
     9     6    23 1   
    10     7     8 ar  
    11     7    24 1   
    12     8     9 ar  
    13     8    25 1   
    14     9    10 1   
    15    10    11 1   
    16    11    12 1   
    17    11    20 1   
    18    11    26 1   
    19    12    13 1   
    20    13    14 1   
    21    13    16 1   
    22    13    27 1   
    23    14    15 1   
    24    14    28 1   
    25    14    29 1   
    26    15    30 1   
    27    16    17 1   
    28    16    18 1   
    29    16    31 1   
    30    17    32 1   
    31    18    19 1   
    32    18    20 1   
    33    18    33 1   
    34    19    34 1   
    35    20    21 1   
    36    20    35 1   
    37    21    36 1   
@<TRIPOS>SUBSTRUCTURE
     1 OTN         1 TEMP              0 ****  ****    0 ROOT
