@<TRIPOS>MOLECULE
OTR
   22    22     1     0     0
SMALL
abcg2


@<TRIPOS>ATOM
      1 C2           3.0550    -1.3050     0.5820 ca         1 OTR      -0.054500
      2 C3           3.0050    -1.4020     1.9620 ca         1 OTR      -0.180500
      3 C4           1.8290    -1.0900     2.6420 ca         1 OTR       0.141100
      4 O4           1.8280    -1.2000     3.9870 oh         1 OTR      -0.534100
      5 C5           0.7130    -0.6790     1.9200 ca         1 OTR      -0.180500
      6 C6           0.7820    -0.5820     0.5370 ca         1 OTR      -0.054500
      7 C1           1.9450    -0.8940    -0.1560 ca         1 OTR      -0.124300
      8 C7           1.9830    -0.8420    -1.6580 c3         1 OTR       0.229600
      9 O7           3.1920    -0.2690    -2.0900 oh         1 OTR      -0.660000
     10 C8           1.8300    -2.2430    -2.2690 c3         1 OTR       0.115800
     11 N8           2.1560    -2.1920    -3.6910 n8         1 OTR      -1.037200
     12 HN81         1.3970    -2.5410    -4.2580 hn         1 OTR       0.408000
     13 HN82         2.9590    -2.7680    -3.8940 hn         1 OTR       0.408000
     14 H81          0.8040    -2.5810    -2.1070 h1         1 OTR       0.041700
     15 H82          2.4790    -2.9480    -1.7420 h1         1 OTR       0.041700
     16 H7           1.1280    -0.2390    -2.0060 h1         1 OTR       0.035700
     17 HO7          3.2390    -0.4950    -3.0330 ho         1 OTR       0.466000
     18 H6          -0.0940    -0.2490    -0.0070 ha         1 OTR       0.117500
     19 H5          -0.2070    -0.4230     2.4330 ha         1 OTR       0.120000
     20 HO4          0.9710    -0.9390     4.3430 ho         1 OTR       0.463000
     21 H3           3.8790    -1.7190     2.5180 ha         1 OTR       0.120000
     22 H2           3.9800    -1.5520     0.0760 ha         1 OTR       0.117500
@<TRIPOS>BOND
     1     1     2 ar  
     2     1     7 ar  
     3     1    22 1   
     4     2     3 ar  
     5     2    21 1   
     6     3     4 1   
     7     3     5 ar  
     8     4    20 1   
     9     5     6 ar  
    10     5    19 1   
    11     6     7 ar  
    12     6    18 1   
    13     7     8 1   
    14     8     9 1   
    15     8    10 1   
    16     8    16 1   
    17     9    17 1   
    18    10    11 1   
    19    10    14 1   
    20    10    15 1   
    21    11    12 1   
    22    11    13 1   
@<TRIPOS>SUBSTRUCTURE
     1 OTR         1 TEMP              0 ****  ****    0 ROOT
