@<TRIPOS>MOLECULE
OTR
   22    22     1     0     0
SMALL
No Charge or Current Charge


@<TRIPOS>ATOM
      1 C2           2.9860    -1.3890     0.5540 ca         1 OTR      -0.054500
      2 C3           3.0110    -1.4280     1.9590 ca         1 OTR      -0.180500
      3 C4           1.8850    -1.0300     2.6950 ca         1 OTR       0.141100
      4 O4           1.9200    -1.0710     4.0560 oh         1 OTR      -0.534100
      5 C5           0.7310    -0.5910     2.0280 ca         1 OTR      -0.180500
      6 C6           0.7030    -0.5510     0.6220 ca         1 OTR      -0.054500
      7 C1           1.8290    -0.9510    -0.1260 ca         1 OTR      -0.124300
      8 C7           1.7850    -0.9080    -1.6540 c3         1 OTR       0.229600
      9 O7           2.8460    -0.1170    -2.1760 oh         1 OTR      -0.660000
     10 C8           1.9430    -2.3020    -2.3300 c3         1 OTR       0.115800
     11 N8           2.5770    -2.1930    -3.6830 n8         1 OTR      -1.037200
     12 HN81         1.8730    -1.8610    -4.3590 hn         1 OTR       0.408000
     13 HN82         2.7850    -3.1410    -4.0300 hn         1 OTR       0.408000
     14 H81          0.9660    -2.7990    -2.4120 h1         1 OTR       0.041700
     15 H82          2.5900    -2.9330    -1.7050 h1         1 OTR       0.041700
     16 H7           0.8260    -0.4820    -1.9790 h1         1 OTR       0.035700
     17 HO7          3.1130    -0.6960    -2.9430 ho         1 OTR       0.466000
     18 H6          -0.1970    -0.2090     0.1150 ha         1 OTR       0.117500
     19 H5          -0.1460    -0.2800     2.5900 ha         1 OTR       0.120000
     20 HO4          1.0540    -0.7600     4.3970 ho         1 OTR       0.463000
     21 H3           3.9050    -1.7660     2.4770 ha         1 OTR       0.120000
     22 H2           3.8670    -1.6960    -0.0060 ha         1 OTR       0.117500
@<TRIPOS>BOND
     1     1     2 ar  
     2     1     7 ar  
     3     1    22 1   
     4     2     3 ar  
     5     2    21 1   
     6     3     4 1   
     7     3     5 ar  
     8     4    20 1   
     9     5     6 ar  
    10     5    19 1   
    11     6     7 ar  
    12     6    18 1   
    13     7     8 1   
    14     8     9 1   
    15     8    10 1   
    16     8    16 1   
    17     9    17 1   
    18    10    11 1   
    19    10    14 1   
    20    10    15 1   
    21    11    12 1   
    22    11    13 1   
@<TRIPOS>SUBSTRUCTURE
     1 OTR         1 TEMP              0 ****  ****    0 ROOT
