@<TRIPOS>MOLECULE
OTS
   22    22     1     0     0
SMALL
bcc


@<TRIPOS>ATOM
      1 C2           1.0170    -0.7920    -0.6340 ca         1 OTS      -0.077000
      2 C3           0.9480    -0.6380    -2.0110 ca         1 OTS      -0.193500
      3 C4          -0.1060     0.0700    -2.5760 ca         1 OTS       0.146100
      4 O4          -0.2380     0.2530    -3.9060 oh         1 OTS      -0.494100
      5 C5          -1.0810     0.6200    -1.7470 ca         1 OTS      -0.193500
      6 C6          -0.9920     0.4600    -0.3760 ca         1 OTS      -0.077000
      7 C1           0.0560    -0.2490     0.2090 ca         1 OTS      -0.155300
      8 C7           0.1530    -0.4260     1.7040 c3         1 OTS       0.194400
      9 O7          -0.9550    -1.1290     2.2420 oh         1 OTS      -0.586800
     10 C8           0.3660     0.9040     2.4160 c3         1 OTS       0.120800
     11 N8           0.6050     0.6950     3.8320 n8         1 OTS      -0.881800
     12 H2           1.8470    -1.3480    -0.2150 ha         1 OTS       0.129500
     13 H3           1.7180    -1.0790    -2.6340 ha         1 OTS       0.140000
     14 HO4          0.4990    -0.1450    -4.3760 ho         1 OTS       0.426000
     15 H5          -1.9040     1.1730    -2.1800 ha         1 OTS       0.140000
     16 H6          -1.7650     0.9170     0.2320 ha         1 OTS       0.129500
     17 H7           1.0190    -1.0570     1.9230 h1         1 OTS       0.090700
     18 HO7         -1.7590    -0.6400     2.0480 ho         1 OTS       0.394000
     19 H81         -0.4830     1.5730     2.2040 h1         1 OTS       0.031200
     20 H82          1.2450     1.3850     1.9810 h1         1 OTS       0.031200
     21 HN81         0.7850     1.5850     4.2770 hn         1 OTS       0.342300
     22 HN82        -0.2360     0.3380     4.2650 hn         1 OTS       0.342300
@<TRIPOS>BOND
     1     1     2 ar  
     2     1     7 ar  
     3     1    12 1   
     4     2     3 ar  
     5     2    13 1   
     6     3     4 1   
     7     3     5 ar  
     8     4    14 1   
     9     5     6 ar  
    10     5    15 1   
    11     6     7 ar  
    12     6    16 1   
    13     7     8 1   
    14     8     9 1   
    15     8    10 1   
    16     8    17 1   
    17     9    18 1   
    18    10    11 1   
    19    10    19 1   
    20    10    20 1   
    21    11    21 1   
    22    11    22 1   
@<TRIPOS>SUBSTRUCTURE
     1 OTS         1 TEMP              0 ****  ****    0 ROOT
