@<TRIPOS>MOLECULE
OTS
   22    22     1     0     0
SMALL
No Charge or Current Charge


@<TRIPOS>ATOM
      1 C2           0.9840    -0.9100    -0.6840 ca         1 OTS      -0.059000
      2 C3           0.8530    -0.7640    -2.0760 ca         1 OTS      -0.175500
      3 C4          -0.1410     0.0750    -2.6030 ca         1 OTS       0.146100
      4 O4          -0.2750     0.2220    -3.9510 oh         1 OTS      -0.533100
      5 C5          -1.0040     0.7650    -1.7410 ca         1 OTS      -0.175500
      6 C6          -0.8760     0.6220    -0.3480 ca         1 OTS      -0.059000
      7 C1           0.1250    -0.2160     0.1930 ca         1 OTS      -0.155300
      8 C7           0.2850    -0.3920     1.7040 c3         1 OTS       0.217600
      9 O7          -0.7760    -1.2280     2.1930 oh         1 OTS      -0.649000
     10 C8           0.3120     0.9620     2.4850 c3         1 OTS       0.120800
     11 N8           0.5660     0.8020     3.9410 n8         1 OTS      -0.992200
     12 H2           1.7580    -1.5660    -0.2880 ha         1 OTS       0.111500
     13 H3           1.5260    -1.3050    -2.7370 ha         1 OTS       0.122000
     14 HO4          0.4060    -0.3300    -4.3920 ho         1 OTS       0.465000
     15 H5          -1.7750     1.4120    -2.1500 ha         1 OTS       0.122000
     16 H6          -1.5600     1.1620     0.3030 ha         1 OTS       0.111500
     17 H7           1.2520    -0.8820     1.8890 h1         1 OTS       0.090700
     18 HO7         -1.5990    -0.9030     1.7710 ho         1 OTS       0.433000
     19 H81         -0.6510     1.4740     2.3630 h1         1 OTS       0.031200
     20 H82          1.0950     1.6090     2.0650 h1         1 OTS       0.031200
     21 HN81         0.3830     1.6940     4.4170 hn         1 OTS       0.397500
     22 HN82        -0.1490     0.1690     4.3240 hn         1 OTS       0.397500
@<TRIPOS>BOND
     1     1     2 ar  
     2     1     7 ar  
     3     1    12 1   
     4     2     3 ar  
     5     2    13 1   
     6     3     4 1   
     7     3     5 ar  
     8     4    14 1   
     9     5     6 ar  
    10     5    15 1   
    11     6     7 ar  
    12     6    16 1   
    13     7     8 1   
    14     8     9 1   
    15     8    10 1   
    16     8    17 1   
    17     9    18 1   
    18    10    11 1   
    19    10    19 1   
    20    10    20 1   
    21    11    21 1   
    22    11    22 1   
@<TRIPOS>SUBSTRUCTURE
     1 OTS         1 TEMP              0 ****  ****    0 ROOT
