@<TRIPOS>MOLECULE
OTT
   19    18     1     0     0
SMALL
No Charge or Current Charge


@<TRIPOS>ATOM
      1 C1           3.4370     0.0060    -0.0400 c          1 OTT       0.693200
      2 C2           2.0540    -0.5710    -0.0300 ce         1 OTT      -0.203200
      3 C3           0.8820     0.1340    -0.0180 cf         1 OTT      -0.265000
      4 C4          -0.4440    -0.4660    -0.0090 cf         1 OTT      -0.100000
      5 C5          -1.6040     0.2410     0.0030 ce         1 OTT      -0.269000
      6 C6          -2.9420    -0.3560     0.0120 ce         1 OTT      -0.140000
      7 C7          -4.0740     0.3750     0.0240 c2         1 OTT      -0.271200
      8 C8          -5.4780    -0.1890     0.0340 c3         1 OTT      -0.041900
      9 O11          3.5730     1.2200    -0.0370 o          1 OTT      -0.723000
     10 O12          4.3750    -0.7750    -0.0500 o          1 OTT      -0.723000
     11 H2           2.0120    -1.6580    -0.0330 ha         1 OTT       0.140000
     12 H3           0.9320     1.2260    -0.0150 ha         1 OTT       0.190000
     13 H4          -0.4980    -1.5580    -0.0120 ha         1 OTT       0.149000
     14 H5          -1.5500     1.3320     0.0060 ha         1 OTT       0.170000
     15 H6          -2.9970    -1.4480     0.0090 ha         1 OTT       0.154000
     16 H7          -4.0280     1.4660     0.0270 ha         1 OTT       0.164000
     17 H8          -5.6610    -0.8070    -0.8540 hc         1 OTT       0.025367
     18 H8A         -5.6460    -0.8130     0.9190 hc         1 OTT       0.025367
     19 H8B         -6.2260     0.6130     0.0430 hc         1 OTT       0.025367
@<TRIPOS>BOND
     1     1     2 1   
     2     1     9 1   
     3     1    10 1   
     4     2     3 2   
     5     2    11 1   
     6     3     4 1   
     7     3    12 1   
     8     4     5 2   
     9     4    13 1   
    10     5     6 1   
    11     5    14 1   
    12     6     7 2   
    13     6    15 1   
    14     7     8 1   
    15     7    16 1   
    16     8    17 1   
    17     8    18 1   
    18     8    19 1   
@<TRIPOS>SUBSTRUCTURE
     1 OTT         1 TEMP              0 ****  ****    0 ROOT
