@<TRIPOS>MOLECULE
OTT
   19    18     1     0     0
SMALL
bcc


@<TRIPOS>ATOM
      1 C1           3.3770     0.0290    -0.0490 c          1 OTT       0.903800
      2 C2           2.0040    -0.5940    -0.0060 ce         1 OTT      -0.153200
      3 C3           0.8650     0.1110    -0.0250 cf         1 OTT      -0.215000
      4 C4          -0.4540    -0.4770     0.0160 cf         1 OTT      -0.050000
      5 C5          -1.5910     0.2420    -0.0020 ce         1 OTT      -0.219000
      6 C6          -2.9160    -0.3370     0.0350 ce         1 OTT      -0.090000
      7 C7          -4.0420     0.3860     0.0110 c2         1 OTT      -0.221200
      8 C8          -5.4240    -0.1890     0.0260 c3         1 OTT      -0.041900
      9 O11          3.4500     1.2710    -0.1460 o          1 OTT      -0.828300
     10 O12          4.3350    -0.7710     0.0180 o          1 OTT      -0.828300
     11 H2           1.9540    -1.6790     0.0440 ha         1 OTT       0.090000
     12 H3           0.9210     1.1950    -0.0750 ha         1 OTT       0.140000
     13 H4          -0.5150    -1.5620     0.0610 ha         1 OTT       0.099000
     14 H5          -1.5290     1.3260    -0.0480 ha         1 OTT       0.120000
     15 H6          -2.9770    -1.4220     0.0870 ha         1 OTT       0.104000
     16 H7          -3.9580     1.4680    -0.0370 ha         1 OTT       0.114000
     17 H8          -5.7030    -0.5790    -0.9560 hc         1 OTT       0.025367
     18 H8A         -5.5140    -1.0130     0.7350 hc         1 OTT       0.025367
     19 H8B         -6.1640     0.5650     0.2900 hc         1 OTT       0.025367
@<TRIPOS>BOND
     1     1     2 1   
     2     1     9 1   
     3     1    10 1   
     4     2     3 2   
     5     2    11 1   
     6     3     4 1   
     7     3    12 1   
     8     4     5 2   
     9     4    13 1   
    10     5     6 1   
    11     5    14 1   
    12     6     7 2   
    13     6    15 1   
    14     7     8 1   
    15     7    16 1   
    16     8    17 1   
    17     8    18 1   
    18     8    19 1   
@<TRIPOS>SUBSTRUCTURE
     1 OTT         1 TEMP              0 ****  ****    0 ROOT
