@<TRIPOS>MOLECULE
OTU
   45    45     1     0     0
SMALL
abcg2


@<TRIPOS>ATOM
      1 C1           0.4510     0.7650     0.9290 c6         1 OTU       0.352300
      2 O1          -0.3280     0.2870    -0.1240 os         1 OTU      -0.451000
      3 C2           0.9450     2.1720     0.5900 c6         1 OTU       0.123300
      4 O2          -0.0910     3.0220     0.1690 oh         1 OTU      -0.710000
      5 C3           2.0040     2.1280    -0.5030 c6         1 OTU       0.138300
      6 O3           2.5960     3.3900    -0.7030 oh         1 OTU      -0.671000
      7 C4           3.1130     1.1610    -0.1020 c6         1 OTU       0.151300
      8 O4           4.0530     0.9980    -1.1350 oh         1 OTU      -0.713000
      9 C5           2.5070    -0.2060     0.2040 c6         1 OTU       0.162300
     10 O5           1.5210    -0.0810     1.2190 os         1 OTU      -0.468000
     11 C6           3.5280    -1.2010     0.7110 c3         1 OTU       0.172600
     12 O6           2.8880    -2.4420     0.8930 oh         1 OTU      -0.713000
     13 OAB         -0.3870    -4.4830    -0.2180 oh         1 OTU      -0.624000
     14 OAG         -2.4830    -0.6780    -1.8160 oh         1 OTU      -0.703000
     15 CAK         -4.6080     0.7240    -0.3380 c3         1 OTU       0.130600
     16 CAO         -0.4860    -2.1120    -0.3610 c          1 OTU       0.561100
     17 CAP         -3.1560     0.6530     0.1050 c3         1 OTU       0.131300
     18 CAS         -2.5060    -0.6460    -0.4120 c3         1 OTU       0.143300
     19 CAW         -1.1060    -0.8390     0.1920 c3         1 OTU       0.040300
     20 H1          -0.1450     0.7970     1.8500 h2         1 OTU       0.075700
     21 H2           1.4220     2.5550     1.5030 h1         1 OTU       0.054700
     22 HO2         -0.6370     3.2480     0.9280 ho         1 OTU       0.518000
     23 H3           1.5480     1.7620    -1.4350 h1         1 OTU       0.072700
     24 HO3          1.9340     3.9820    -1.0720 ho         1 OTU       0.465000
     25 H4           3.5950     1.5460     0.8110 h1         1 OTU       0.045700
     26 HO4          4.4600     1.8530    -1.3080 ho         1 OTU       0.523000
     27 H5           2.0610    -0.5970    -0.7180 h1         1 OTU       0.089700
     28 H6           4.3410    -1.2670    -0.0200 h1         1 OTU       0.034700
     29 H6A          3.9660    -0.8240     1.6470 h1         1 OTU       0.034700
     30 HO6          3.5540    -3.0800     1.1620 ho         1 OTU       0.503000
     31 HOAC        -6.0540     2.0060    -0.2480 ho         1 OTU       0.505000
     32 HOAG        -1.9020     0.0240    -2.1320 ho         1 OTU       0.526000
     33 HAK         -5.1620    -0.1050     0.1280 h1         1 OTU       0.029200
     34 HAKA        -4.6610     0.5690    -1.4210 h1         1 OTU       0.029200
     35 HAP         -2.6100     1.5010    -0.3200 h1         1 OTU       0.103700
     36 HAS         -3.1250    -1.4980    -0.1010 h1         1 OTU       0.069700
     37 HAW         -1.2250    -0.9500     1.2780 h1         1 OTU       0.063700
     38 H20         -0.4620    -5.2320     0.3800 ho         1 OTU       0.443000
     39 HAJ         -1.7300    -3.3210     0.8770 h1         1 OTU       0.035700
     40 H22         -0.0520    -3.1800     1.3780 h1         1 OTU       0.035700
     41 OAA          0.1160    -2.1410    -1.4030 o          1 OTU      -0.454100
     42 CAJ         -0.6970    -3.3280     0.4970 c3         1 OTU       0.062600
     43 OAE         -3.0270     0.7820     1.5020 oh         1 OTU      -0.649000
     44 HOAE        -3.5610     0.1040     1.9300 ho         1 OTU       0.437000
     45 OAC         -5.1360     1.9750     0.0350 oh         1 OTU      -0.711000
@<TRIPOS>BOND
     1     1     2 1   
     2     1     3 1   
     3     1    10 1   
     4     1    20 1   
     5     2    19 1   
     6     3     4 1   
     7     3     5 1   
     8     3    21 1   
     9     4    22 1   
    10     5     6 1   
    11     5     7 1   
    12     5    23 1   
    13     6    24 1   
    14     7     8 1   
    15     7     9 1   
    16     7    25 1   
    17     8    26 1   
    18     9    10 1   
    19     9    11 1   
    20     9    27 1   
    21    11    12 1   
    22    11    28 1   
    23    11    29 1   
    24    12    30 1   
    25    13    38 1   
    26    13    42 1   
    27    14    18 1   
    28    14    32 1   
    29    15    17 1   
    30    15    33 1   
    31    15    34 1   
    32    15    45 1   
    33    16    19 1   
    34    16    41 2   
    35    16    42 1   
    36    17    18 1   
    37    17    35 1   
    38    17    43 1   
    39    18    19 1   
    40    18    36 1   
    41    19    37 1   
    42    31    45 1   
    43    39    42 1   
    44    40    42 1   
    45    43    44 1   
@<TRIPOS>SUBSTRUCTURE
     1 OTU         1 TEMP              0 ****  ****    0 ROOT
