@<TRIPOS>MOLECULE
OTU
   45    45     1     0     0
SMALL
No Charge or Current Charge


@<TRIPOS>ATOM
      1 C1           0.3830     1.1830     0.2670 c6         1 OTU       0.352300
      2 O1           0.0190     0.2050    -0.7330 os         1 OTU      -0.451000
      3 C2           1.0980     2.4230    -0.3780 c6         1 OTU       0.123300
      4 O2           0.3000     3.0560    -1.4130 oh         1 OTU      -0.710000
      5 C3           2.4670     1.9780    -0.9690 c6         1 OTU       0.138300
      6 O3           3.1690     3.1090    -1.5200 oh         1 OTU      -0.671000
      7 C4           3.3270     1.2760     0.1210 c6         1 OTU       0.151300
      8 O4           4.5810     0.8580    -0.4500 oh         1 OTU      -0.713000
      9 C5           2.5210     0.0830     0.7190 c6         1 OTU       0.162300
     10 O5           1.2470     0.5580     1.2410 os         1 OTU      -0.468000
     11 C6           3.2860    -0.6430     1.8730 c3         1 OTU       0.172600
     12 O6           2.5390    -1.7290     2.4590 oh         1 OTU      -0.713000
     13 OAB         -2.1580    -4.0520    -1.4280 oh         1 OTU      -0.624000
     14 OAG         -2.3700     0.5830    -1.4730 oh         1 OTU      -0.703000
     15 CAK         -4.5350     0.3380     0.5850 c3         1 OTU       0.130600
     16 CAO         -0.5040    -2.2100    -1.0790 c          1 OTU       0.561100
     17 CAP         -3.0530    -0.0670     0.8060 c3         1 OTU       0.131300
     18 CAS         -2.3310    -0.4860    -0.5130 c3         1 OTU       0.143300
     19 CAW         -0.8370    -0.9010    -0.3130 c3         1 OTU       0.040300
     20 H1          -0.5260     1.5390     0.7750 h2         1 OTU       0.075700
     21 H2           1.2960     3.1450     0.4290 h1         1 OTU       0.054700
     22 HO2         -0.3790     3.6160    -0.9660 ho         1 OTU       0.518000
     23 H3           2.2640     1.2450    -1.7660 h1         1 OTU       0.072700
     24 HO3          2.4740     3.6340    -1.9830 ho         1 OTU       0.465000
     25 H4           3.5150     1.9990     0.9300 h1         1 OTU       0.045700
     26 HO4          4.8390     1.5980    -1.0530 ho         1 OTU       0.523000
     27 H5           2.3320    -0.6570    -0.0730 h1         1 OTU       0.089700
     28 H6           4.2370    -1.0190     1.4730 h1         1 OTU       0.034700
     29 H6A          3.5300     0.1040     2.6420 h1         1 OTU       0.034700
     30 HO6          3.0670    -2.0630     3.2210 ho         1 OTU       0.503000
     31 HOAC        -6.0910     0.8810     1.6680 ho         1 OTU       0.505000
     32 HOAG        -1.4150     0.8170    -1.6070 ho         1 OTU       0.526000
     33 HAK         -5.0510    -0.4580     0.0300 h1         1 OTU       0.029200
     34 HAKA        -4.5750     1.2500    -0.0260 h1         1 OTU       0.029200
     35 HAP         -2.5320     0.8050     1.2250 h1         1 OTU       0.103700
     36 HAS         -2.8850    -1.3490    -0.9110 h1         1 OTU       0.069700
     37 HAW         -0.6610    -1.1400     0.7440 h1         1 OTU       0.063700
     38 H20         -2.4910    -4.8880    -1.0300 ho         1 OTU       0.443000
     39 HAJ         -1.6130    -3.2810     0.4440 h1         1 OTU       0.035700
     40 H22         -0.3590    -4.2360    -0.3590 h1         1 OTU       0.035700
     41 OAA          0.3210    -2.2480    -1.9890 o          1 OTU      -0.454100
     42 CAJ         -1.1620    -3.5070    -0.5310 c3         1 OTU       0.062600
     43 OAE         -3.0350    -1.1500     1.7510 oh         1 OTU      -0.649000
     44 HOAE        -3.8060    -0.9650     2.3370 ho         1 OTU       0.437000
     45 OAC         -5.1770     0.5600     1.8560 oh         1 OTU      -0.711000
@<TRIPOS>BOND
     1     1     2 1   
     2     1     3 1   
     3     1    10 1   
     4     1    20 1   
     5     2    19 1   
     6     3     4 1   
     7     3     5 1   
     8     3    21 1   
     9     4    22 1   
    10     5     6 1   
    11     5     7 1   
    12     5    23 1   
    13     6    24 1   
    14     7     8 1   
    15     7     9 1   
    16     7    25 1   
    17     8    26 1   
    18     9    10 1   
    19     9    11 1   
    20     9    27 1   
    21    11    12 1   
    22    11    28 1   
    23    11    29 1   
    24    12    30 1   
    25    13    38 1   
    26    13    42 1   
    27    14    18 1   
    28    14    32 1   
    29    15    17 1   
    30    15    33 1   
    31    15    34 1   
    32    15    45 1   
    33    16    19 1   
    34    16    41 2   
    35    16    42 1   
    36    17    18 1   
    37    17    35 1   
    38    17    43 1   
    39    18    19 1   
    40    18    36 1   
    41    19    37 1   
    42    31    45 1   
    43    39    42 1   
    44    40    42 1   
    45    43    44 1   
@<TRIPOS>SUBSTRUCTURE
     1 OTU         1 TEMP              0 ****  ****    0 ROOT
