@<TRIPOS>MOLECULE
OTV
   43    45     1     0     0
SMALL
abcg2


@<TRIPOS>ATOM
      1 N1           7.6680    -0.8850    21.2180 ns         1 OTV      -0.147000
      2 C4           6.8750     1.1110    20.0150 ca         1 OTV       0.325900
      3 C5           6.6570     0.0240    20.8670 ca         1 OTV      -0.068000
      4 C6           9.0220    -0.7410    21.1140 c          1 OTV       0.606100
      5 C7           9.8250    -1.8140    21.8370 c3         1 OTV      -0.111100
      6 C8          10.3170    -1.2680    23.1640 ca         1 OTV      -0.029300
      7 C10         12.0830    -0.5770    24.6140 ca         1 OTV       0.174000
      8 C13          7.5130    -0.1650    26.1760 cx         1 OTV       0.205500
      9 C15          6.5520     0.7660    25.4570 cx         1 OTV      -0.237700
     10 C17          9.3930    -0.8780    24.1290 ca         1 OTV      -0.181000
     11 F2           7.7980     2.8020    25.5490 f          1 OTV      -0.110000
     12 C16          6.9790     2.0340    24.8010 c3         1 OTV       0.329000
     13 F            5.9000     2.8050    24.5010 f          1 OTV      -0.110000
     14 F1           7.6170     1.8210    23.6240 f          1 OTV      -0.110000
     15 C14          6.5420     0.6540    26.9590 cx         1 OTV      -0.097400
     16 C12          9.8100    -0.3100    25.3400 ca         1 OTV       0.344000
     17 C11         11.1880    -0.1680    25.5820 ca         1 OTV      -0.173000
     18 CL          13.8020    -0.3980    24.9290 cl         1 OTV      -0.211000
     19 C9          11.6810    -1.1200    23.3980 ca         1 OTV      -0.132000
     20 O            9.5700     0.1850    20.5310 o          1 OTV      -0.561100
     21 C1           5.3700    -0.1730    21.4010 ca         1 OTV      -0.103300
     22 C            5.0540    -1.3240    22.3100 c3         1 OTV      -0.049800
     23 N            5.9230     1.9900    19.6940 nb         1 OTV      -0.640000
     24 C3           4.7060     1.8120    20.2100 ca         1 OTV       0.312900
     25 C2           4.3950     0.7520    21.0510 ca         1 OTV      -0.139000
     26 H1           7.3580    -1.7080    21.7100 hn         1 OTV       0.146000
     27 H2           7.8530     1.2670    19.5890 h4         1 OTV       0.055100
     28 H3           9.2220    -2.7090    21.9980 hc         1 OTV       0.072200
     29 H4          10.6700    -2.0810    21.2050 hc         1 OTV       0.072200
     30 H5           7.2680    -1.2140    26.0430 h1         1 OTV       0.081700
     31 H6           5.7550     0.2890    24.9020 hc         1 OTV       0.111700
     32 H7           8.3390    -0.9870    23.9310 ha         1 OTV       0.112000
     33 H8           6.9470     1.4910    27.5120 hc         1 OTV       0.093200
     34 H9           5.7020     0.1570    27.4200 hc         1 OTV       0.093200
     35 H10          9.2550     0.3960    27.1800 hn         1 OTV       0.500000
     36 H11         11.5370     0.2580    26.5140 ha         1 OTV       0.130000
     37 H12         12.4090    -1.4180    22.6570 ha         1 OTV       0.136000
     38 H13          5.1700    -2.2800    21.7900 hc         1 OTV       0.042033
     39 H14          5.7150    -1.3460    23.1790 hc         1 OTV       0.042033
     40 H15          4.0280    -1.2560    22.6650 hc         1 OTV       0.042033
     41 H16          3.9490     2.5400    19.9420 h4         1 OTV       0.022100
     42 H17          3.3910     0.6500    21.4430 ha         1 OTV       0.119000
     43 N2           8.9020     0.1240    26.2760 nu         1 OTV      -0.958200
@<TRIPOS>BOND
     1     1     3 1   
     2     1     4 1   
     3     1    26 1   
     4     2     3 ar  
     5     2    23 ar  
     6     2    27 1   
     7     3    21 ar  
     8     4     5 1   
     9     4    20 2   
    10     5     6 1   
    11     5    28 1   
    12     5    29 1   
    13     6    10 ar  
    14     6    19 ar  
    15     7    17 ar  
    16     7    18 1   
    17     7    19 ar  
    18     8     9 1   
    19     8    15 1   
    20     8    30 1   
    21     8    43 1   
    22     9    12 1   
    23     9    15 1   
    24     9    31 1   
    25    10    16 ar  
    26    10    32 1   
    27    11    12 1   
    28    12    13 1   
    29    12    14 1   
    30    15    33 1   
    31    15    34 1   
    32    16    17 ar  
    33    16    43 1   
    34    17    36 1   
    35    19    37 1   
    36    21    22 1   
    37    21    25 ar  
    38    22    38 1   
    39    22    39 1   
    40    22    40 1   
    41    23    24 ar  
    42    24    25 ar  
    43    24    41 1   
    44    25    42 1   
    45    35    43 1   
@<TRIPOS>SUBSTRUCTURE
     1 OTV         1 TEMP              0 ****  ****    0 ROOT
