@<TRIPOS>MOLECULE
OTV
   43    45     1     0     0
SMALL
No Charge or Current Charge


@<TRIPOS>ATOM
      1 N1           7.6800    -0.7720    21.2200 ns         1 OTV      -0.147000
      2 C4           6.9270     1.0660    19.6990 ca         1 OTV       0.325900
      3 C5           6.6730     0.0940    20.7030 ca         1 OTV      -0.068000
      4 C6           9.0550    -0.8140    21.0370 c          1 OTV       0.606100
      5 C7           9.7660    -1.8840    21.8730 c3         1 OTV      -0.111100
      6 C8          10.2740    -1.2670    23.1700 ca         1 OTV      -0.029300
      7 C10         12.0690    -0.3070    24.5040 ca         1 OTV       0.174000
      8 C13          7.5230    -0.3720    26.4830 cx         1 OTV       0.205500
      9 C15          6.5660     0.5810    25.7990 cx         1 OTV      -0.237700
     10 C17          9.3780    -1.0150    24.2260 ca         1 OTV      -0.181000
     11 F2           7.9450     2.5450    25.5790 f          1 OTV      -0.110000
     12 C16          6.9870     1.8030    24.9750 c3         1 OTV       0.329000
     13 F            5.9220     2.6100    24.7700 f          1 OTV      -0.110000
     14 F1           7.4520     1.4290    23.7620 f          1 OTV      -0.110000
     15 C14          6.6610     0.5550    27.3090 cx         1 OTV      -0.097400
     16 C12          9.8190    -0.3970    25.4100 ca         1 OTV       0.344000
     17 C11         11.1680    -0.0470    25.5460 ca         1 OTV      -0.173000
     18 Cl          13.7610     0.1410    24.6790 cl         1 OTV      -0.211000
     19 C9          11.6270    -0.9100    23.3160 ca         1 OTV      -0.132000
     20 O            9.6760    -0.0440    20.3150 o          1 OTV      -0.561100
     21 C1           5.3590    -0.0110    21.2130 ca         1 OTV      -0.103300
     22 C            4.9930    -1.0260    22.2930 c3         1 OTV      -0.049800
     23 N            5.9750     1.8960    19.2080 nb         1 OTV      -0.640000
     24 C3           4.7250     1.7870    19.7070 ca         1 OTV       0.312900
     25 C2           4.3780     0.8560    20.6990 ca         1 OTV      -0.139000
     26 H1           7.3270    -1.4690    21.8640 hn         1 OTV       0.146000
     27 H2           7.9120     1.1900    19.2580 h4         1 OTV       0.055100
     28 H3           9.0630    -2.6880    22.1230 hc         1 OTV       0.072200
     29 H4          10.6030    -2.2920    21.2950 hc         1 OTV       0.072200
     30 H5           7.2590    -1.4330    26.4760 h1         1 OTV       0.081700
     31 H6           5.6830     0.1150    25.3700 hc         1 OTV       0.111700
     32 H7           8.3340    -1.2870    24.1140 ha         1 OTV       0.112000
     33 H8           7.1450     1.3870    27.8150 hc         1 OTV       0.093200
     34 H9           5.8380     0.1110    27.8620 hc         1 OTV       0.093200
     35 H10          9.3730     0.3350    27.2600 hn         1 OTV       0.500000
     36 H11         11.5210     0.4310    26.4540 ha         1 OTV       0.130000
     37 H12         12.3350    -1.0900    22.5120 ha         1 OTV       0.136000
     38 H13          5.0510    -2.0500    21.9040 hc         1 OTV       0.042033
     39 H14          5.6690    -0.9540    23.1530 hc         1 OTV       0.042033
     40 H15          3.9740    -0.8720    22.6660 hc         1 OTV       0.042033
     41 H16          3.9770     2.4660    19.2970 h4         1 OTV       0.022100
     42 H17          3.3530     0.8160    21.0580 ha         1 OTV       0.119000
     43 N2           8.9340    -0.1060    26.4500 nu         1 OTV      -0.958200
@<TRIPOS>BOND
     1     1     3 1   
     2     1     4 1   
     3     1    26 1   
     4     2     3 ar  
     5     2    23 ar  
     6     2    27 1   
     7     3    21 ar  
     8     4     5 1   
     9     4    20 2   
    10     5     6 1   
    11     5    28 1   
    12     5    29 1   
    13     6    10 ar  
    14     6    19 ar  
    15     7    17 ar  
    16     7    18 1   
    17     7    19 ar  
    18     8     9 1   
    19     8    15 1   
    20     8    30 1   
    21     8    43 1   
    22     9    12 1   
    23     9    15 1   
    24     9    31 1   
    25    10    16 ar  
    26    10    32 1   
    27    11    12 1   
    28    12    13 1   
    29    12    14 1   
    30    15    33 1   
    31    15    34 1   
    32    16    17 ar  
    33    16    43 1   
    34    17    36 1   
    35    19    37 1   
    36    21    22 1   
    37    21    25 ar  
    38    22    38 1   
    39    22    39 1   
    40    22    40 1   
    41    23    24 ar  
    42    24    25 ar  
    43    24    41 1   
    44    25    42 1   
    45    35    43 1   
@<TRIPOS>SUBSTRUCTURE
     1 OTV         1 TEMP              0 ****  ****    0 ROOT
