@<TRIPOS>MOLECULE
OTW
   24    25     1     0     0
SMALL
bcc


@<TRIPOS>ATOM
      1 C1           0.6000     2.8580     0.0380 c3         1 OTW      -0.053800
      2 C2           0.8650     1.3860     0.0500 ca         1 OTW      -0.008300
      3 C3           2.1370     0.9010     0.0610 ca         1 OTW      -0.283300
      4 C4           2.3720    -0.5060     0.0710 ca         1 OTW       0.658200
      5 N5           1.4010    -1.3810     0.0660 nb         1 OTW      -0.743000
      6 C6           0.1220    -0.9240     0.0610 ca         1 OTW       0.415600
      7 C7          -0.2160     0.4490     0.0540 ca         1 OTW      -0.141300
      8 C8          -1.5690     0.8430     0.0450 ca         1 OTW      -0.178000
      9 C9          -2.5880    -0.0900     0.0500 ca         1 OTW       0.127600
     10 C10         -2.2410    -1.4620     0.0540 ca         1 OTW      -0.157000
     11 C11         -0.9320    -1.8620     0.0580 ca         1 OTW      -0.150300
     12 N12         -3.9210     0.2780     0.1070 nv         1 OTW      -0.816200
     13 N13          3.6600    -0.9600     0.1370 nv         1 OTW      -0.945500
     14 H11C         0.0290     3.1510    -0.8450 hc         1 OTW       0.046700
     15 H12C         0.0180     3.1620     0.9100 hc         1 OTW       0.046700
     16 H13C         1.5280     3.4260     0.0400 hc         1 OTW       0.046700
     17 H3           2.9820     1.5800     0.0640 ha         1 OTW       0.135000
     18 H131         4.3840    -0.3460    -0.1990 hn         1 OTW       0.410800
     19 H132         3.8010    -1.9270    -0.1050 hn         1 OTW       0.410800
     20 H11         -0.6870    -2.9170     0.0590 ha         1 OTW       0.146000
     21 H8          -1.8170     1.8980     0.0370 ha         1 OTW       0.128000
     22 H10         -3.0290    -2.2060     0.0560 ha         1 OTW       0.131000
     23 H121        -4.1220     1.2120    -0.2130 hn         1 OTW       0.386800
     24 H122        -4.5650    -0.3880    -0.2910 hn         1 OTW       0.386800
@<TRIPOS>BOND
     1     1     2 1   
     2     1    14 1   
     3     1    15 1   
     4     1    16 1   
     5     2     3 ar  
     6     2     7 ar  
     7     3     4 ar  
     8     3    17 1   
     9     4     5 ar  
    10     4    13 1   
    11     5     6 ar  
    12     6     7 ar  
    13     6    11 ar  
    14     7     8 ar  
    15     8     9 ar  
    16     8    21 1   
    17     9    10 ar  
    18     9    12 1   
    19    10    11 ar  
    20    10    22 1   
    21    11    20 1   
    22    12    23 1   
    23    12    24 1   
    24    13    18 1   
    25    13    19 1   
@<TRIPOS>SUBSTRUCTURE
     1 OTW         1 TEMP              0 ****  ****    0 ROOT
