@<TRIPOS>MOLECULE
OTW
   24    25     1     0     0
SMALL
No Charge or Current Charge


@<TRIPOS>ATOM
      1 C1           0.5920     2.9140     0.0370 c3         1 OTW      -0.053800
      2 C2           0.8510     1.4110     0.0550 ca         1 OTW      -0.008300
      3 C3           2.1720     0.9350     0.0820 ca         1 OTW      -0.200000
      4 C4           2.3870    -0.4420     0.1000 ca         1 OTW       0.592900
      5 N5           1.4340    -1.3610     0.0890 nb         1 OTW      -0.743000
      6 C6           0.1490    -0.9340     0.0630 ca         1 OTW       0.285000
      7 C7          -0.1910     0.4500     0.0460 ca         1 OTW      -0.076000
      8 C8          -1.5530     0.8380     0.0190 ca         1 OTW      -0.160000
      9 C9          -2.5690    -0.1280     0.0090 ca         1 OTW       0.266000
     10 C10         -2.2380    -1.4880     0.0260 ca         1 OTW      -0.139000
     11 C11         -0.8890    -1.8850     0.0530 ca         1 OTW      -0.067000
     12 N12         -3.8820     0.2590    -0.0170 nv         1 OTW      -1.065000
     13 N13          3.5990    -1.0050     0.1180 nv         1 OTW      -1.055900
     14 H11C         0.0390     3.2090    -0.8620 hc         1 OTW       0.046700
     15 H12C         0.0090     3.2240     0.9130 hc         1 OTW       0.046700
     16 H13C         1.5260     3.4880     0.0480 hc         1 OTW       0.046700
     17 H3           3.0150     1.6190     0.0910 ha         1 OTW       0.117000
     18 H131         4.3800    -0.4450    -0.2080 hn         1 OTW       0.466000
     19 H132         3.6220    -1.9930    -0.1030 hn         1 OTW       0.466000
     20 H11         -0.6440    -2.9430     0.0660 ha         1 OTW       0.128000
     21 H8          -1.8320     1.8870     0.0060 ha         1 OTW       0.110000
     22 H10         -3.0200    -2.2430     0.0190 ha         1 OTW       0.113000
     23 H121        -4.1250     1.2400    -0.1450 hn         1 OTW       0.442000
     24 H122        -4.6200    -0.4330    -0.1400 hn         1 OTW       0.442000
@<TRIPOS>BOND
     1     1     2 1   
     2     1    14 1   
     3     1    15 1   
     4     1    16 1   
     5     2     3 ar  
     6     2     7 ar  
     7     3     4 ar  
     8     3    17 1   
     9     4     5 ar  
    10     4    13 1   
    11     5     6 ar  
    12     6     7 ar  
    13     6    11 ar  
    14     7     8 ar  
    15     8     9 ar  
    16     8    21 1   
    17     9    10 ar  
    18     9    12 1   
    19    10    11 ar  
    20    10    22 1   
    21    11    20 1   
    22    12    23 1   
    23    12    24 1   
    24    13    18 1   
    25    13    19 1   
@<TRIPOS>SUBSTRUCTURE
     1 OTW         1 TEMP              0 ****  ****    0 ROOT
