@<TRIPOS>MOLECULE
OTX
   57    61     1     0     0
SMALL
abcg2


@<TRIPOS>ATOM
      1 C22         66.3250    75.6090    10.9810 ca         1 OTX      -0.109000
      2 C33         63.4080    72.7780    12.8450 ca         1 OTX      -0.109000
      3 C32         63.9100    71.4860    12.8630 ca         1 OTX      -0.060000
      4 C21         67.1890    76.6660    10.7550 ca         1 OTX      -0.058000
      5 C8          67.8480    80.6030    13.4450 cc         1 OTX       0.280900
      6 C5          68.8380    82.2680    15.9550 cd         1 OTX       0.186900
      7 C11         69.8140    79.5930    13.3500 cd         1 OTX      -0.107000
      8 C36         62.7800    75.6910    11.8230 cc         1 OTX      -0.184000
      9 C24         67.6160    75.0600    12.9160 ca         1 OTX      -0.107300
     10 C23         66.5410    74.7960    12.0920 cp         1 OTX      -0.009000
     11 C7          69.1390    80.5970    14.0320 cc         1 OTX      -0.157000
     12 C27         65.6330    73.6660    12.4020 cp         1 OTX      -0.054000
     13 C34         64.2630    73.8470    12.6200 ca         1 OTX       0.038800
     14 C28         66.1060    72.3590    12.4440 ca         1 OTX       0.199000
     15 C30         65.2660    71.2740    12.6680 ca         1 OTX       0.079000
     16 C6          69.5760    81.4600    15.1060 cc         1 OTX      -0.071000
     17 C20         68.2530    76.9200    11.6010 ca         1 OTX      -0.175300
     18 C37         62.6640    76.9860    12.2640 cd         1 OTX       0.284000
     19 C14         69.2600    78.6550    10.0400 c3         1 OTX      -0.087400
     20 C15         70.3080    79.7340     9.8900 c3         1 OTX       0.160600
     21 C12         69.2270    78.0540    11.4470 c3         1 OTX       0.169600
     22 C17         72.6590    79.9480    10.2420 c3         1 OTX       0.376300
     23 N4          69.6840    82.9090    16.7930 nd         1 OTX      -0.355000
     24 N9          67.7450    79.6930    12.4880 nd         1 OTX      -0.530800
     25 N39         63.5160    77.1890    13.2950 nd         1 OTX      -0.322000
     26 N3          70.9090    82.5500    16.5180 nc         1 OTX      -0.215800
     27 N40         64.1650    76.0830    13.5220 nc         1 OTX      -0.164800
     28 N35         63.7290    75.1680    12.6330 na         1 OTX       0.195000
     29 N10         68.9500    79.0870    12.4470 na         1 OTX       0.116800
     30 N2          70.8580    81.6740    15.4980 na         1 OTX       0.115800
     31 N25         68.4580    76.1000    12.6820 na         1 OTX       0.453300
     32 O26         69.4440    76.3110    13.4890 o          1 OTX      -0.520000
     33 O16         71.6040    79.1260    10.1400 os         1 OTX      -0.500000
     34 F29         67.4110    72.1350    12.2280 f          1 OTX      -0.146000
     35 F18         72.5150    80.8420    11.2820 f          1 OTX      -0.145000
     36 F19         72.8060    80.7350     9.1230 f          1 OTX      -0.145000
     37 CL31        65.9250    69.6730    12.6930 cl         1 OTX      -0.144000
     38 H1          65.5000    75.4190    10.3100 ha         1 OTX       0.133000
     39 H2          62.3570    72.9600    13.0210 ha         1 OTX       0.144000
     40 H3          63.2560    70.6440    13.0410 ha         1 OTX       0.147000
     41 H4          67.0360    77.3130     9.9050 ha         1 OTX       0.141000
     42 H5          67.0110    81.2390    13.6890 h4         1 OTX       0.046100
     43 H6          67.7700    82.4040    15.9990 h4         1 OTX       0.047100
     44 H7          70.8100    79.2000    13.4380 h4         1 OTX       0.164000
     45 H8          62.3050    75.1390    11.0330 h4         1 OTX       0.180000
     46 H9          67.8530    74.4850    13.7980 h4         1 OTX       0.180000
     47 H10         72.9140    81.6300    15.4450 h1         1 OTX       0.063033
     48 H11         72.1450    80.0470    15.1960 h1         1 OTX       0.063033
     49 H12         72.1290    81.2600    13.8920 h1         1 OTX       0.063033
     50 H13         68.2950    79.0990     9.7940 hc         1 OTX       0.073700
     51 H14         69.4530    77.8550     9.3240 hc         1 OTX       0.073700
     52 H15         70.2940    80.1350     8.8770 h1         1 OTX       0.062700
     53 H16         70.1510    80.5480    10.5980 h1         1 OTX       0.062700
     54 H17         70.2140    77.6720    11.6990 h1         1 OTX       0.110700
     55 H18         73.5680    79.3720    10.3960 h3         1 OTX       0.108700
     56 CL38        61.6390    78.2230    11.6710 cl         1 OTX      -0.106000
     57 C1          72.0870    81.1110    14.9690 c3         1 OTX       0.062900
@<TRIPOS>BOND
     1     1     4 ar  
     2     1    10 ar  
     3     1    38 1   
     4     2     3 ar  
     5     2    13 ar  
     6     2    39 1   
     7     3    15 ar  
     8     3    40 1   
     9     4    17 ar  
    10     4    41 1   
    11     5    11 1   
    12     5    24 2   
    13     5    42 1   
    14     6    16 2   
    15     6    23 1   
    16     6    43 1   
    17     7    11 2   
    18     7    29 1   
    19     7    44 1   
    20     8    18 2   
    21     8    28 1   
    22     8    45 1   
    23     9    10 ar  
    24     9    31 2   
    25     9    46 1   
    26    10    12 1   
    27    11    16 1   
    28    12    13 ar  
    29    12    14 ar  
    30    13    28 1   
    31    14    15 ar  
    32    14    34 1   
    33    15    37 1   
    34    16    30 1   
    35    17    21 1   
    36    17    31 1   
    37    18    25 1   
    38    18    56 1   
    39    19    20 1   
    40    19    21 1   
    41    19    50 1   
    42    19    51 1   
    43    20    33 1   
    44    20    52 1   
    45    20    53 1   
    46    21    29 1   
    47    21    54 1   
    48    22    33 1   
    49    22    35 1   
    50    22    36 1   
    51    22    55 1   
    52    23    26 2   
    53    24    29 1   
    54    25    27 2   
    55    26    30 1   
    56    27    28 1   
    57    30    57 1   
    58    31    32 1   
    59    47    57 1   
    60    48    57 1   
    61    49    57 1   
@<TRIPOS>SUBSTRUCTURE
     1 OTX         1 TEMP              0 ****  ****    0 ROOT
