@<TRIPOS>MOLECULE
OTX
   57    61     1     0     0
SMALL
No Charge or Current Charge


@<TRIPOS>ATOM
      1 C22         66.4340    75.8240    10.7900 ca         1 OTX      -0.109000
      2 C33         63.8820    73.1340    13.8400 ca         1 OTX      -0.109000
      3 C32         63.5530    72.0890    12.9610 ca         1 OTX      -0.060000
      4 C21         67.3740    76.8120    10.4890 ca         1 OTX      -0.058000
      5 C8          67.8660    81.0590    11.9380 cc         1 OTX       0.280900
      6 C5          67.4180    82.6130    14.5520 cd         1 OTX       0.186900
      7 C11         69.0930    79.5820    13.0520 cd         1 OTX      -0.107000
      8 C36         65.0470    76.4480    13.9620 cc         1 OTX      -0.184000
      9 C24         67.8670    74.9660    12.5950 ca         1 OTX      -0.107300
     10 C23         66.6590    74.9210    11.8490 cp         1 OTX      -0.009000
     11 C7          68.3730    80.7290    13.2050 cc         1 OTX      -0.157000
     12 C27         65.5860    73.9560    12.2390 cp         1 OTX      -0.054000
     13 C34         64.8800    74.0530    13.4740 ca         1 OTX       0.038800
     14 C28         65.2240    72.8950    11.3700 ca         1 OTX       0.199000
     15 C30         64.2190    71.9710    11.7280 ca         1 OTX       0.079000
     16 C6          68.1490    81.4650    14.4240 cc         1 OTX      -0.071000
     17 C20         68.5620    76.8860    11.2380 ca         1 OTX      -0.175300
     18 C37         65.6740    77.0740    15.0000 cd         1 OTX       0.284000
     19 C14         69.9440    78.2600     9.5530 c3         1 OTX      -0.087400
     20 C15         71.0550    79.3100     9.3460 c3         1 OTX       0.160600
     21 C12         69.5290    78.0650    11.0390 c3         1 OTX       0.169600
     22 C17         73.3640    79.7470    10.0220 c3         1 OTX       0.376300
     23 N4          67.4390    83.0010    15.8780 nd         1 OTX      -0.355000
     24 N9          68.2000    80.2030    10.9950 nd         1 OTX      -0.530800
     25 N39         66.1980    76.1430    15.8820 nd         1 OTX      -0.322000
     26 N3          68.1460    82.1440    16.5730 nc         1 OTX      -0.215800
     27 N40         65.9410    74.9390    15.4330 nc         1 OTX      -0.164800
     28 N35         65.2500    75.1340    14.2810 na         1 OTX       0.195000
     29 N10         68.9810    79.2790    11.6900 na         1 OTX       0.116800
     30 N2          68.5910    81.1920    15.7000 na         1 OTX       0.115800
     31 N25         68.8000    75.9520    12.2610 na         1 OTX       0.453300
     32 O26         69.8420    76.0130    12.9280 o          1 OTX      -0.520000
     33 O16         72.2220    78.8650    10.0660 os         1 OTX      -0.500000
     34 F29         65.8600    72.7550    10.1820 f          1 OTX      -0.146000
     35 F18         73.0620    80.9570    10.5470 f          1 OTX      -0.145000
     36 F19         73.7630    79.9620     8.7470 f          1 OTX      -0.145000
     37 Cl31        63.7860    70.6520    10.6400 cl         1 OTX      -0.144000
     38 H1          65.5000    75.7850    10.2340 ha         1 OTX       0.133000
     39 H2          63.3640    73.2340    14.7910 ha         1 OTX       0.144000
     40 H3          62.7800    71.3720    13.2310 ha         1 OTX       0.147000
     41 H4          67.1520    77.5410     9.7120 ha         1 OTX       0.141000
     42 H5          67.2440    81.9050    11.6780 h4         1 OTX       0.046100
     43 H6          66.8890    83.1730    13.7920 h4         1 OTX       0.047100
     44 H7          69.6460    78.9610    13.7460 h4         1 OTX       0.164000
     45 H8          64.5320    76.8050    13.0820 h4         1 OTX       0.180000
     46 H9          68.0850    74.3070    13.4320 h4         1 OTX       0.180000
     47 H10         69.5690    80.1590    17.2630 h1         1 OTX       0.063033
     48 H11         68.9000    79.1260    15.9690 h1         1 OTX       0.063033
     49 H12         70.3850    80.0890    15.6760 h1         1 OTX       0.063033
     50 H13         69.0760    78.5520     8.9520 hc         1 OTX       0.073700
     51 H14         70.2920    77.3010     9.1520 hc         1 OTX       0.073700
     52 H15         71.2670    79.4010     8.2720 h1         1 OTX       0.062700
     53 H16         70.7120    80.2890     9.7080 h1         1 OTX       0.062700
     54 H17         70.4630    77.8450    11.5710 h1         1 OTX       0.110700
     55 H18         74.2030    79.3210    10.5840 h3         1 OTX       0.108700
     56 Cl38        65.8240    78.7880    15.2100 cl         1 OTX      -0.106000
     57 C1          69.4120    80.0720    16.1810 c3         1 OTX       0.062900
@<TRIPOS>BOND
     1     1     4 ar  
     2     1    10 ar  
     3     1    38 1   
     4     2     3 ar  
     5     2    13 ar  
     6     2    39 1   
     7     3    15 ar  
     8     3    40 1   
     9     4    17 ar  
    10     4    41 1   
    11     5    11 1   
    12     5    24 2   
    13     5    42 1   
    14     6    16 2   
    15     6    23 1   
    16     6    43 1   
    17     7    11 2   
    18     7    29 1   
    19     7    44 1   
    20     8    18 2   
    21     8    28 1   
    22     8    45 1   
    23     9    10 ar  
    24     9    31 2   
    25     9    46 1   
    26    10    12 1   
    27    11    16 1   
    28    12    13 ar  
    29    12    14 ar  
    30    13    28 1   
    31    14    15 ar  
    32    14    34 1   
    33    15    37 1   
    34    16    30 1   
    35    17    21 1   
    36    17    31 1   
    37    18    25 1   
    38    18    56 1   
    39    19    20 1   
    40    19    21 1   
    41    19    50 1   
    42    19    51 1   
    43    20    33 1   
    44    20    52 1   
    45    20    53 1   
    46    21    29 1   
    47    21    54 1   
    48    22    33 1   
    49    22    35 1   
    50    22    36 1   
    51    22    55 1   
    52    23    26 2   
    53    24    29 1   
    54    25    27 2   
    55    26    30 1   
    56    27    28 1   
    57    30    57 1   
    58    31    32 1   
    59    47    57 1   
    60    48    57 1   
    61    49    57 1   
@<TRIPOS>SUBSTRUCTURE
     1 OTX         1 TEMP              0 ****  ****    0 ROOT
