@<TRIPOS>MOLECULE
OTY
   24    24     1     0     0
SMALL
bcc


@<TRIPOS>ATOM
      1 OD1         33.3090     9.0210    25.2810 oh         1 OTY      -0.475100
      2 N           30.2930     8.8070    26.7020 n8         1 OTY      -0.882800
      3 CA          29.6180     8.8310    25.4150 c3         1 OTY       0.018500
      4 C           28.7380     7.5940    25.0950 c          1 OTY       0.902600
      5 O           27.9100     7.7350    24.1710 o          1 OTY      -0.838800
      6 CB          30.6420     9.0000    24.2780 c3         1 OTY      -0.009100
      7 CG          31.4880    10.2340    24.4090 ca         1 OTY      -0.083300
      8 CD1         32.7880    10.2130    24.9220 ca         1 OTY       0.182100
      9 CD2         30.9800    11.4730    24.0320 ca         1 OTY      -0.071000
     10 CE1         33.5310    11.3860    25.0480 ca         1 OTY      -0.328000
     11 CE2         31.6960    12.6540    24.1490 ca         1 OTY      -0.205000
     12 CZ          32.9870    12.6070    24.6660 ca         1 OTY       0.144100
     13 OH          33.6690    13.7670    24.7750 oh         1 OTY      -0.510100
     14 H1          34.2190     9.1270    25.5810 ho         1 OTY       0.405000
     15 H2          29.5900     8.7880    27.4320 hn         1 OTY       0.325800
     16 H3          30.7650     7.9140    26.7870 hn         1 OTY       0.325800
     17 H5          28.9730     9.7170    25.3980 h1         1 OTY       0.035700
     18 H6          30.0940     9.0450    23.3350 hc         1 OTY       0.054200
     19 H7          31.2660     8.1040    24.2250 hc         1 OTY       0.054200
     20 H8          29.9750    11.5120    23.6250 ha         1 OTY       0.138000
     21 H9          34.5390    11.3440    25.4510 ha         1 OTY       0.112000
     22 H10         31.2630    13.5980    23.8430 ha         1 OTY       0.133000
     23 H11         34.5500    13.6090    25.1320 ho         1 OTY       0.411000
     24 O1          28.9500     6.5590    25.7570 o          1 OTY      -0.838800
@<TRIPOS>BOND
     1     1     8 1   
     2     1    14 1   
     3     2     3 1   
     4     2    15 1   
     5     2    16 1   
     6     3     4 1   
     7     3     6 1   
     8     3    17 1   
     9     4     5 1   
    10     4    24 1   
    11     6     7 1   
    12     6    18 1   
    13     6    19 1   
    14     7     8 ar  
    15     7     9 ar  
    16     8    10 ar  
    17     9    11 ar  
    18     9    20 1   
    19    10    12 ar  
    20    10    21 1   
    21    11    12 ar  
    22    11    22 1   
    23    12    13 1   
    24    13    23 1   
@<TRIPOS>SUBSTRUCTURE
     1 OTY         1 TEMP              0 ****  ****    0 ROOT
