@<TRIPOS>MOLECULE
OTY
   24    24     1     0     0
SMALL
No Charge or Current Charge


@<TRIPOS>ATOM
      1 OD1         33.5700     9.0520    25.1740 oh         1 OTY      -0.475100
      2 N           30.0330     8.9200    26.7750 n8         1 OTY      -0.882800
      3 CA          29.5520     8.8150    25.3430 c3         1 OTY       0.018500
      4 C           28.6540     7.5560    24.9770 c          1 OTY       0.902600
      5 O           27.5530     7.7470    24.4700 o          1 OTY      -0.838800
      6 CB          30.7400     8.9190    24.3460 c3         1 OTY      -0.009100
      7 CG          31.5580    10.2120    24.4740 ca         1 OTY      -0.083300
      8 CD1         32.9180    10.2110    24.8750 ca         1 OTY       0.182100
      9 CD2         30.9430    11.4420    24.1610 ca         1 OTY      -0.071000
     10 CE1         33.6340    11.4150    24.9660 ca         1 OTY      -0.328000
     11 CE2         31.6660    12.6440    24.2560 ca         1 OTY      -0.205000
     12 CZ          33.0060    12.6260    24.6580 ca         1 OTY       0.144100
     13 OH          33.7030    13.7890    24.7480 oh         1 OTY      -0.510100
     14 H1          34.4850     9.2810    25.4310 ho         1 OTY       0.405000
     15 H2          29.2250     8.8840    27.4050 hn         1 OTY       0.325800
     16 H3          30.5640     8.0730    27.0040 hn         1 OTY       0.325800
     17 H5          28.9140     9.6930    25.1750 h1         1 OTY       0.035700
     18 H6          30.3370     8.8610    23.3270 hc         1 OTY       0.054200
     19 H7          31.3700     8.0290    24.4560 hc         1 OTY       0.054200
     20 H8          29.9020    11.4660    23.8430 ha         1 OTY       0.138000
     21 H9          34.6760    11.4060    25.2740 ha         1 OTY       0.112000
     22 H10         31.1840    13.5880    24.0140 ha         1 OTY       0.133000
     23 H11         34.6120    13.5730    25.0410 ho         1 OTY       0.411000
     24 O1          29.0330     6.4390    25.3160 o          1 OTY      -0.838800
@<TRIPOS>BOND
     1     1     8 1   
     2     1    14 1   
     3     2     3 1   
     4     2    15 1   
     5     2    16 1   
     6     3     4 1   
     7     3     6 1   
     8     3    17 1   
     9     4     5 1   
    10     4    24 1   
    11     6     7 1   
    12     6    18 1   
    13     6    19 1   
    14     7     8 ar  
    15     7     9 ar  
    16     8    10 ar  
    17     9    11 ar  
    18     9    20 1   
    19    10    12 ar  
    20    10    21 1   
    21    11    12 ar  
    22    11    22 1   
    23    12    13 1   
    24    13    23 1   
@<TRIPOS>SUBSTRUCTURE
     1 OTY         1 TEMP              0 ****  ****    0 ROOT
