@<TRIPOS>MOLECULE
OTZ
   21    22     1     0     0
SMALL
No Charge or Current Charge


@<TRIPOS>ATOM
      1 N            4.8230    -1.7580    -0.9640 n8         1 OTZ      -0.881800
      2 CA1          4.4510    -1.0700     0.3130 c3         1 OTZ       0.131500
      3 C2           3.1610    -0.2560     0.2590 cc         1 OTZ       0.452700
      4 N2           1.9260    -0.7390     0.1930 nd         1 OTZ      -0.624000
      5 C3           1.1430     0.4070     0.1610 cd         1 OTZ       0.235000
      6 C4          -0.3030     0.5190     0.0890 cd         1 OTZ       0.369400
      7 N3          -1.1010    -0.5430     0.0400 nc         1 OTZ      -0.548000
      8 CA2         -2.4380    -0.1600    -0.0240 cc         1 OTZ       0.304800
      9 C           -3.6240    -1.1220    -0.0910 c          1 OTZ       0.840100
     10 O           -4.7700    -0.6740    -0.1460 o          1 OTZ      -0.804300
     11 C7          -2.6410     1.2050    -0.0240 cd         1 OTZ      -0.154400
     12 S1          -1.1230     2.0850     0.0590 ss         1 OTZ      -0.341300
     13 C8           1.9440     1.5170     0.2110 cc         1 OTZ       0.122300
     14 O3           3.2420     1.1100     0.2750 os         1 OTZ      -0.335800
     15 H1           5.6490    -2.3450    -0.8040 hn         1 OTZ       0.341300
     16 H2           4.0810    -2.4230    -1.2120 hn         1 OTZ       0.341300
     17 H4           4.3460    -1.8290     1.1010 h1         1 OTZ       0.055700
     18 H5           5.2750    -0.4040     0.6030 h1         1 OTZ       0.055700
     19 H11         -3.5910     1.7270    -0.0680 h4         1 OTZ       0.182000
     20 H13          1.7380     2.5780     0.2090 h4         1 OTZ       0.063100
     21 OXT         -3.4310    -2.3390    -0.0910 o          1 OTZ      -0.804300
@<TRIPOS>BOND
     1     1     2 1   
     2     1    15 1   
     3     1    16 1   
     4     2     3 1   
     5     2    17 1   
     6     2    18 1   
     7     3     4 2   
     8     3    14 1   
     9     4     5 1   
    10     5     6 1   
    11     5    13 2   
    12     6     7 2   
    13     6    12 1   
    14     7     8 1   
    15     8     9 1   
    16     8    11 2   
    17     9    10 1   
    18     9    21 1   
    19    11    12 1   
    20    11    19 1   
    21    13    14 1   
    22    13    20 1   
@<TRIPOS>SUBSTRUCTURE
     1 OTZ         1 TEMP              0 ****  ****    0 ROOT
