@<TRIPOS>MOLECULE
OTZ
   21    22     1     0     0
SMALL
bcc


@<TRIPOS>ATOM
      1 N            5.1290    -1.2290    -0.7070 n8         1 OTZ      -0.881800
      2 CA1          4.1700    -1.3690     0.3730 c3         1 OTZ       0.131500
      3 C2           3.0090    -0.4560     0.1850 cc         1 OTZ       0.452700
      4 N2           1.7570    -0.7470     0.2280 nd         1 OTZ      -0.624000
      5 C3           1.1030     0.4530     0.0290 cd         1 OTZ       0.235000
      6 C4          -0.3440     0.5440     0.0120 cd         1 OTZ       0.369400
      7 N3          -1.1360    -0.4690     0.1570 nc         1 OTZ      -0.548000
      8 CA2         -2.4500    -0.0980     0.1020 cc         1 OTZ       0.304800
      9 C           -3.5660    -1.1150     0.2450 c          1 OTZ       0.840100
     10 O           -4.7220    -0.6540     0.1930 o          1 OTZ      -0.804300
     11 C7          -2.6560     1.2350    -0.0900 cd         1 OTZ      -0.154400
     12 S1          -1.1620     2.0570    -0.2070 ss         1 OTZ      -0.341300
     13 C8           2.0300     1.4260    -0.1340 cc         1 OTZ       0.122300
     14 O3           3.2440     0.8480    -0.0350 os         1 OTZ      -0.335800
     15 H1           5.9750    -1.7230    -0.4570 hn         1 OTZ       0.341300
     16 H2           4.7740    -1.6870    -1.5380 hn         1 OTZ       0.341300
     17 H4           3.7600    -2.3750     0.5090 h1         1 OTZ       0.055700
     18 H5           4.6650    -1.1060     1.3120 h1         1 OTZ       0.055700
     19 H11         -3.5920     1.7630    -0.1700 h4         1 OTZ       0.182000
     20 H13          1.9900     2.4870    -0.3180 h4         1 OTZ       0.063100
     21 OXT         -3.2210    -2.2980     0.3980 o          1 OTZ      -0.804300
@<TRIPOS>BOND
     1     1     2 1   
     2     1    15 1   
     3     1    16 1   
     4     2     3 1   
     5     2    17 1   
     6     2    18 1   
     7     3     4 2   
     8     3    14 1   
     9     4     5 1   
    10     5     6 1   
    11     5    13 2   
    12     6     7 2   
    13     6    12 1   
    14     7     8 1   
    15     8     9 1   
    16     8    11 2   
    17     9    10 1   
    18     9    21 1   
    19    11    12 1   
    20    11    19 1   
    21    13    14 1   
    22    13    20 1   
@<TRIPOS>SUBSTRUCTURE
     1 OTZ         1 TEMP              0 ****  ****    0 ROOT
