@<TRIPOS>MOLECULE
OU1
   48    51     1     0     0
SMALL
bcc


@<TRIPOS>ATOM
      1 C02         14.2800     0.4530    23.3860 ca         1 OU1       0.688200
      2 C03         14.8550     1.2720    22.3660 ca         1 OU1      -0.299300
      3 C04         14.2380     2.4240    21.9880 ca         1 OU1       0.008700
      4 C05         13.0170     2.7760    22.6410 ca         1 OU1      -0.190300
      5 C06         12.2850     3.9410    22.3420 ca         1 OU1      -0.094000
      6 C07         11.1170     4.2340    22.9970 ca         1 OU1      -0.142000
      7 C08         10.6150     3.3730    23.9980 cp         1 OU1       0.000000
      8 C09         11.3250     2.2280    24.3000 ca         1 OU1      -0.183300
      9 C10         12.5240     1.8990    23.6370 ca         1 OU1       0.458600
     10 C11         14.8210     3.3010    20.9260 c3         1 OU1      -0.056800
     11 C21          9.3600     3.7030    24.7000 cp         1 OU1      -0.075000
     12 C22          8.9900     5.0230    24.9340 ca         1 OU1      -0.076000
     13 C23          7.8100     5.3390    25.5930 ca         1 OU1      -0.223000
     14 C24          6.9660     4.3250    26.0370 ca         1 OU1       0.154100
     15 C25          7.3150     2.9820    25.8240 ca         1 OU1      -0.111300
     16 C26          8.4960     2.7030    25.1590 ca         1 OU1      -0.064000
     17 C27          6.4060     1.8720    26.2790 c3         1 OU1       0.205100
     18 C30          5.3580     5.8740    26.8820 c3         1 OU1       0.171400
     19 C31          4.0330     5.8190    27.5710 cx         1 OU1      -0.134700
     20 C32          3.6520     6.9470    28.4800 cx         1 OU1      -0.122400
     21 C33          3.9830     5.6030    29.0520 cx         1 OU1      -0.122400
     22 N01         13.1580     0.7560    23.9940 nb         1 OU1      -0.763000
     23 N02         14.9380    -0.6670    23.7750 nv         1 OU1      -0.963500
     24 O29          5.8030     4.5400    26.6780 os         1 OU1      -0.329900
     25 N28          5.2680     1.7120    25.3760 n8         1 OU1      -0.876800
     26 H1          15.7870     0.9690    21.9030 ha         1 OU1       0.135000
     27 H2          12.6450     4.6170    21.5770 ha         1 OU1       0.127000
     28 H3          10.5670     5.1250    22.7240 ha         1 OU1       0.132000
     29 H4          10.9820     1.5550    25.0760 ha         1 OU1       0.147000
     30 H5          14.1370     3.4120    20.0830 hc         1 OU1       0.047700
     31 H6          15.0210     4.3030    21.3080 hc         1 OU1       0.047700
     32 H7          15.7570     2.8940    20.5490 hc         1 OU1       0.047700
     33 H8           9.6340     5.8350    24.6180 ha         1 OU1       0.130000
     34 H9           7.5720     6.3810    25.7550 ha         1 OU1       0.133000
     35 H10          8.7420     1.6630    24.9770 ha         1 OU1       0.139000
     36 H11          6.1140     2.0440    27.3230 h1         1 OU1       0.035700
     37 H12          6.9730     0.9400    26.2710 h1         1 OU1       0.035700
     38 H13          6.0800     6.4300    27.4920 h1         1 OU1       0.038200
     39 H14          5.2720     6.3920    25.9190 h1         1 OU1       0.038200
     40 H15          3.2320     5.3790    26.9860 hc         1 OU1       0.088700
     41 H16          4.3650     7.7500    28.6210 hc         1 OU1       0.073950
     42 H17          2.6190     7.2680    28.4800 hc         1 OU1       0.073950
     43 H18          3.1750     5.0020    29.4490 hc         1 OU1       0.073950
     44 H19          4.9210     5.4900    29.5810 hc         1 OU1       0.073950
     45 H20         14.4400    -1.3290    24.3460 hn         1 OU1       0.423800
     46 H21         15.6430    -1.0580    23.1730 hn         1 OU1       0.423800
     47 H22          4.7030     0.9390    25.7060 hn         1 OU1       0.336800
     48 H23          4.6710     2.5270    25.4480 hn         1 OU1       0.336800
@<TRIPOS>BOND
     1     1     2 ar  
     2     1    22 ar  
     3     1    23 1   
     4     2     3 ar  
     5     2    26 1   
     6     3     4 ar  
     7     3    10 1   
     8     4     5 ar  
     9     4     9 ar  
    10     5     6 ar  
    11     5    27 1   
    12     6     7 ar  
    13     6    28 1   
    14     7     8 ar  
    15     7    11 1   
    16     8     9 ar  
    17     8    29 1   
    18     9    22 ar  
    19    10    30 1   
    20    10    31 1   
    21    10    32 1   
    22    11    12 ar  
    23    11    16 ar  
    24    12    13 ar  
    25    12    33 1   
    26    13    14 ar  
    27    13    34 1   
    28    14    15 ar  
    29    14    24 1   
    30    15    16 ar  
    31    15    17 1   
    32    16    35 1   
    33    17    25 1   
    34    17    36 1   
    35    17    37 1   
    36    18    19 1   
    37    18    24 1   
    38    18    38 1   
    39    18    39 1   
    40    19    20 1   
    41    19    21 1   
    42    19    40 1   
    43    20    21 1   
    44    20    41 1   
    45    20    42 1   
    46    21    43 1   
    47    21    44 1   
    48    23    45 1   
    49    23    46 1   
    50    25    47 1   
    51    25    48 1   
@<TRIPOS>SUBSTRUCTURE
     1 OU1         1 TEMP              0 ****  ****    0 ROOT
