@<TRIPOS>MOLECULE
OU1
   48    51     1     0     0
SMALL
No Charge or Current Charge


@<TRIPOS>ATOM
      1 C02         14.3720     0.4970    23.4210 ca         1 OU1       0.622900
      2 C03         14.9310     1.2400    22.3840 ca         1 OU1      -0.216000
      3 C04         14.2670     2.4000    21.9570 ca         1 OU1       0.008700
      4 C05         13.0590     2.7400    22.6140 ca         1 OU1      -0.125000
      5 C06         12.3230     3.8900    22.2540 ca         1 OU1      -0.076000
      6 C07         11.1290     4.2070    22.9200 ca         1 OU1      -0.124000
      7 C08         10.6320     3.3900    23.9610 cp         1 OU1       0.000000
      8 C09         11.3810     2.2400    24.3100 ca         1 OU1      -0.100000
      9 C10         12.5820     1.9020    23.6590 ca         1 OU1       0.328000
     10 C11         14.8580     3.2340    20.8250 c3         1 OU1      -0.056800
     11 C21          9.3570     3.7290    24.6700 cp         1 OU1      -0.075000
     12 C22          8.9970     5.0750    24.9220 ca         1 OU1      -0.058000
     13 C23          7.8030     5.3950    25.5870 ca         1 OU1      -0.205000
     14 C24          6.9310     4.3730    26.0210 ca         1 OU1       0.154100
     15 C25          7.2690     3.0230    25.7800 ca         1 OU1      -0.111300
     16 C26          8.4710     2.7150    25.1110 ca         1 OU1      -0.046000
     17 C27          6.3630     1.8830    26.2350 c3         1 OU1       0.205100
     18 C30          5.3340     5.9990    26.9760 c3         1 OU1       0.194600
     19 C31          3.9990     5.9050    27.7050 cx         1 OU1      -0.134700
     20 C32          3.5690     6.9770    28.6820 cx         1 OU1      -0.122400
     21 C33          3.9380     5.6000    29.1850 cx         1 OU1      -0.122400
     22 N01         13.2460     0.7880    24.0490 nb         1 OU1      -0.763000
     23 N02         14.9070    -0.6250    23.9040 nv         1 OU1      -1.073900
     24 O29          5.7480     4.6560    26.6780 os         1 OU1      -0.353100
     25 N28          5.5230     1.3860    25.1300 n8         1 OU1      -0.987200
     26 H1          15.8610     0.9220    21.9230 ha         1 OU1       0.117000
     27 H2          12.6600     4.5490    21.4580 ha         1 OU1       0.109000
     28 H3          10.5760     5.0910    22.6130 ha         1 OU1       0.114000
     29 H4          11.0340     1.6010    25.1150 ha         1 OU1       0.129000
     30 H5          14.1640     3.2970    19.9780 hc         1 OU1       0.047700
     31 H6          15.0780     4.2550    21.1610 hc         1 OU1       0.047700
     32 H7          15.7940     2.8050    20.4490 hc         1 OU1       0.047700
     33 H8           9.6570     5.8810    24.6100 ha         1 OU1       0.112000
     34 H9           7.5740     6.4430    25.7580 ha         1 OU1       0.115000
     35 H10          8.7110     1.6730    24.9190 ha         1 OU1       0.121000
     36 H11          5.7130     2.2080    27.0590 h1         1 OU1       0.035700
     37 H12          6.9800     1.0520    26.6070 h1         1 OU1       0.035700
     38 H13          6.0730     6.5010    27.6140 h1         1 OU1       0.038200
     39 H14          5.2070     6.5840    26.0550 h1         1 OU1       0.038200
     40 H15          3.2190     5.4740    27.0820 hc         1 OU1       0.088700
     41 H16          4.2600     7.7920    28.8870 hc         1 OU1       0.073950
     42 H17          2.5190     7.2580    28.6960 hc         1 OU1       0.073950
     43 H18          3.1350     4.9550    29.5360 hc         1 OU1       0.073950
     44 H19          4.8760     5.4910    29.7240 hc         1 OU1       0.073950
     45 H20         14.2740    -1.1710    24.4740 hn         1 OU1       0.479000
     46 H21         15.5280    -1.1460    23.2940 hn         1 OU1       0.479000
     47 H22          4.8770     0.6780    25.4980 hn         1 OU1       0.392000
     48 H23          4.9050     2.1480    24.8310 hn         1 OU1       0.392000
@<TRIPOS>BOND
     1     1     2 ar  
     2     1    22 ar  
     3     1    23 1   
     4     2     3 ar  
     5     2    26 1   
     6     3     4 ar  
     7     3    10 1   
     8     4     5 ar  
     9     4     9 ar  
    10     5     6 ar  
    11     5    27 1   
    12     6     7 ar  
    13     6    28 1   
    14     7     8 ar  
    15     7    11 1   
    16     8     9 ar  
    17     8    29 1   
    18     9    22 ar  
    19    10    30 1   
    20    10    31 1   
    21    10    32 1   
    22    11    12 ar  
    23    11    16 ar  
    24    12    13 ar  
    25    12    33 1   
    26    13    14 ar  
    27    13    34 1   
    28    14    15 ar  
    29    14    24 1   
    30    15    16 ar  
    31    15    17 1   
    32    16    35 1   
    33    17    25 1   
    34    17    36 1   
    35    17    37 1   
    36    18    19 1   
    37    18    24 1   
    38    18    38 1   
    39    18    39 1   
    40    19    20 1   
    41    19    21 1   
    42    19    40 1   
    43    20    21 1   
    44    20    41 1   
    45    20    42 1   
    46    21    43 1   
    47    21    44 1   
    48    23    45 1   
    49    23    46 1   
    50    25    47 1   
    51    25    48 1   
@<TRIPOS>SUBSTRUCTURE
     1 OU1         1 TEMP              0 ****  ****    0 ROOT
