@<TRIPOS>MOLECULE
OU2
   77    80     1     0     0
SMALL
No Charge or Current Charge


@<TRIPOS>ATOM
      1 C4          -3.9840    36.3100    25.7940 ca         1 OU2      -0.108000
      2 C5          -4.6960    36.7000    26.9420 ca         1 OU2      -0.099000
      3 C6          -1.0790    36.2900    22.5650 cc         1 OU2       0.302900
      4 N1          -1.1950    36.5400    23.8570 nd         1 OU2      -0.512800
      5 C7          -3.2200    36.8340    22.6950 cd         1 OU2       0.343000
      6 C8          -2.2660    36.4530    21.8160 cc         1 OU2      -0.378600
      7 N2          -1.2840    35.8570    19.7330 ns         1 OU2      -0.506900
      8 C9          -2.4310    36.2570    20.3740 c          1 OU2       0.665700
      9 C10         -1.1710    35.6290    18.2930 c3         1 OU2       0.155300
     10 C11         -0.6220    36.8540    17.5760 ca         1 OU2      -0.066300
     11 C12          0.7610    36.9960    17.3660 ca         1 OU2      -0.108000
     12 N3           0.0950    41.3220    15.1260 ns         1 OU2      -0.495900
     13 C13          1.2680    38.1290    16.7080 ca         1 OU2      -0.069000
     14 C14          0.4030    39.1480    16.2470 ca         1 OU2      -0.153600
     15 C15         -0.9890    38.9970    16.4640 ca         1 OU2      -0.069000
     16 N4           0.3230    43.6870    16.4910 ns         1 OU2      -0.498900
     17 O2          -3.4840    36.4310    19.7780 o          1 OU2      -0.644100
     18 N5          -4.5450    37.1240    22.5030 nv         1 OU2      -1.076000
     19 N           -2.5350    36.8750    23.9230 na         1 OU2       0.160000
     20 C3          -3.2430    37.2600    25.0630 ca         1 OU2       0.015800
     21 C2          -3.2150    38.6010    25.4930 ca         1 OU2      -0.108000
     22 C1          -3.9270    38.9910    26.6420 ca         1 OU2      -0.099000
     23 C           -4.6680    38.0400    27.3650 ca         1 OU2      -0.106000
     24 C16         -1.4910    37.8610    17.1230 ca         1 OU2      -0.108000
     25 C17          0.9870    40.3540    15.5390 c          1 OU2       0.618700
     26 O1           2.1890    40.4780    15.3460 o          1 OU2      -0.620100
     27 C18          0.4510    42.5000    14.2950 c3         1 OU2       0.031700
     28 C19          0.5820    43.8060    15.1400 c          1 OU2       0.575100
     29 O            0.8850    44.8810    14.6400 o          1 OU2      -0.610100
     30 C20          0.4160    44.7750    17.4660 c3         1 OU2       0.104000
     31 C21          1.8720    45.0630    17.8730 c3         1 OU2      -0.112100
     32 C22         -0.5540    42.6680    13.1250 c3         1 OU2      -0.077400
     33 C23         -0.7680    41.4040    12.2470 c3         1 OU2      -0.068400
     34 C24          0.5080    40.7720    11.6070 c6         1 OU2      -0.064700
     35 C27          0.1470    39.4740    10.8310 c6         1 OU2      -0.070400
     36 C28          1.4000    38.8180    10.2000 c6         1 OU2      -0.073900
     37 C29          2.1470    39.8110     9.2780 c6         1 OU2      -0.073400
     38 C26          2.5170    41.1050    10.0400 c6         1 OU2      -0.073900
     39 C25          1.2660    41.7630    10.6750 c6         1 OU2      -0.070400
     40 H1          -4.0070    35.2720    25.4700 ha         1 OU2       0.128000
     41 H2          -5.2680    35.9650    27.5040 ha         1 OU2       0.120000
     42 H3          -0.1070    35.9920    22.1940 h4         1 OU2       0.032100
     43 H4          -0.4570    35.7420    20.3020 hn         1 OU2       0.317500
     44 H5          -2.1530    35.3620    17.8780 h1         1 OU2       0.056700
     45 H6          -0.5020    34.7740    18.1260 h1         1 OU2       0.056700
     46 H7           1.4470    36.2260    17.7130 ha         1 OU2       0.117000
     47 H8          -0.8850    41.1360    15.2980 hn         1 OU2       0.326500
     48 H9           2.3420    38.2120    16.5580 ha         1 OU2       0.122000
     49 H10         -1.7000    39.7480    16.1300 ha         1 OU2       0.122000
     50 H11          0.0900    42.7580    16.8210 hn         1 OU2       0.330500
     51 H12         -5.0820    37.5790    23.2390 hn         1 OU2       0.496500
     52 H13         -4.8980    37.1840    21.5480 hn         1 OU2       0.496500
     53 H14         -2.6410    39.3400    24.9370 ha         1 OU2       0.128000
     54 H15         -3.9030    40.0280    26.9710 ha         1 OU2       0.120000
     55 H16         -5.2180    38.3420    28.2540 ha         1 OU2       0.119000
     56 H17         -2.5630    37.7650    17.2830 ha         1 OU2       0.117000
     57 H18          1.4460    42.3350    13.8630 h1         1 OU2       0.084700
     58 H19         -0.0350    45.6810    17.0400 h1         1 OU2       0.051200
     59 H20         -0.1620    44.4970    18.3570 h1         1 OU2       0.051200
     60 H21          1.9060    45.8680    18.6160 hc         1 OU2       0.041033
     61 H22          2.3340    44.1700    18.3120 hc         1 OU2       0.041033
     62 H23          2.4660    45.3710    17.0050 hc         1 OU2       0.041033
     63 H24         -0.2280    43.4980    12.4870 hc         1 OU2       0.059700
     64 H25         -1.5250    42.9700    13.5360 hc         1 OU2       0.059700
     65 H26         -1.2780    40.6460    12.8560 hc         1 OU2       0.039700
     66 H27         -1.4790    41.6650    11.4530 hc         1 OU2       0.039700
     67 H28          1.1750    40.4920    12.4340 hc         1 OU2       0.053700
     68 H29         -0.3380    38.7560    11.5070 hc         1 OU2       0.036450
     69 H30         -0.5830    39.7010    10.0420 hc         1 OU2       0.036450
     70 H31          1.1060    37.9270     9.6290 hc         1 OU2       0.039200
     71 H32          2.0750    38.4700    10.9950 hc         1 OU2       0.039200
     72 H33          1.5170    40.0570     8.4120 hc         1 OU2       0.037200
     73 H34          3.0550    39.3390     8.8790 hc         1 OU2       0.037200
     74 H35          3.0030    41.8140     9.3560 hc         1 OU2       0.039200
     75 H36          3.2510    40.8760    10.8240 hc         1 OU2       0.039200
     76 H37          1.5830    42.6520    11.2370 hc         1 OU2       0.036450
     77 H38          0.5940    42.1180     9.8820 hc         1 OU2       0.036450
@<TRIPOS>BOND
     1     1     2 ar  
     2     1    20 ar  
     3     1    40 1   
     4     2    23 ar  
     5     2    41 1   
     6     3     4 2   
     7     3     6 1   
     8     3    42 1   
     9     4    19 1   
    10     5     6 2   
    11     5    18 1   
    12     5    19 1   
    13     6     8 1   
    14     7     8 1   
    15     7     9 1   
    16     7    43 1   
    17     8    17 2   
    18     9    10 1   
    19     9    44 1   
    20     9    45 1   
    21    10    11 ar  
    22    10    24 ar  
    23    11    13 ar  
    24    11    46 1   
    25    12    25 1   
    26    12    27 1   
    27    12    47 1   
    28    13    14 ar  
    29    13    48 1   
    30    14    15 ar  
    31    14    25 1   
    32    15    24 ar  
    33    15    49 1   
    34    16    28 1   
    35    16    30 1   
    36    16    50 1   
    37    18    51 1   
    38    18    52 1   
    39    19    20 1   
    40    20    21 ar  
    41    21    22 ar  
    42    21    53 1   
    43    22    23 ar  
    44    22    54 1   
    45    23    55 1   
    46    24    56 1   
    47    25    26 2   
    48    27    28 1   
    49    27    32 1   
    50    27    57 1   
    51    28    29 2   
    52    30    31 1   
    53    30    58 1   
    54    30    59 1   
    55    31    60 1   
    56    31    61 1   
    57    31    62 1   
    58    32    33 1   
    59    32    63 1   
    60    32    64 1   
    61    33    34 1   
    62    33    65 1   
    63    33    66 1   
    64    34    35 1   
    65    34    39 1   
    66    34    67 1   
    67    35    36 1   
    68    35    68 1   
    69    35    69 1   
    70    36    37 1   
    71    36    70 1   
    72    36    71 1   
    73    37    38 1   
    74    37    72 1   
    75    37    73 1   
    76    38    39 1   
    77    38    74 1   
    78    38    75 1   
    79    39    76 1   
    80    39    77 1   
@<TRIPOS>SUBSTRUCTURE
     1 OU2         1 TEMP              0 ****  ****    0 ROOT
