@<TRIPOS>MOLECULE
OU2
   77    80     1     0     0
SMALL
abcg2


@<TRIPOS>ATOM
      1 C4          -3.5640    36.1220    26.2080 ca         1 OU2      -0.108000
      2 C5          -3.8620    36.5760    27.4830 ca         1 OU2      -0.099000
      3 C6          -1.8390    35.2730    22.5320 cc         1 OU2       0.302900
      4 N1          -1.9090    35.4580    23.8220 nd         1 OU2      -0.512800
      5 C7          -3.1710    37.0220    22.8020 cd         1 OU2       0.343000
      6 C8          -2.6030    36.2180    21.8100 cc         1 OU2      -0.378600
      7 N2          -2.1760    35.5380    19.5600 ns         1 OU2      -0.506900
      8 C9          -2.8130    36.3970    20.3820 c          1 OU2       0.665700
      9 C10         -2.3100    35.6180    18.1290 c3         1 OU2       0.155300
     10 C11         -1.6430    36.8230    17.5120 ca         1 OU2      -0.066300
     11 C12         -0.4730    37.3580    18.0420 ca         1 OU2      -0.108000
     12 N3          -0.4530    41.0250    14.9620 ns         1 OU2      -0.495900
     13 C13          0.1470    38.4390    17.4380 ca         1 OU2      -0.069000
     14 C14         -0.3960    39.0220    16.2960 ca         1 OU2      -0.153600
     15 C15         -1.5600    38.4790    15.7550 ca         1 OU2      -0.069000
     16 N4           0.9670    43.5890    16.0590 ns         1 OU2      -0.498900
     17 O2          -3.5360    37.2900    19.9380 o          1 OU2      -0.644100
     18 N5          -4.0690    38.0240    22.6950 nv         1 OU2      -1.076000
     19 N           -2.7190    36.5380    23.9800 na         1 OU2       0.160000
     20 C3          -3.0280    37.0030    25.2760 ca         1 OU2       0.015800
     21 C2          -2.7860    38.3290    25.6150 ca         1 OU2      -0.108000
     22 C1          -3.1070    38.7800    26.8890 ca         1 OU2      -0.099000
     23 C           -3.6430    37.9060    27.8240 ca         1 OU2      -0.106000
     24 C16         -2.1720    37.3920    16.3590 ca         1 OU2      -0.108000
     25 C17          0.3100    40.1890    15.6910 c          1 OU2       0.618700
     26 O1           1.5100    40.3620    15.8590 o          1 OU2      -0.620100
     27 C18          0.0660    42.2020    14.2950 c3         1 OU2       0.031700
     28 C19         -0.0750    43.4010    15.2410 c          1 OU2       0.575100
     29 O           -1.0850    44.0900    15.2620 o          1 OU2      -0.610100
     30 C20          1.0120    44.6240    17.0720 c3         1 OU2       0.104000
     31 C21          1.5220    45.9560    16.5410 c3         1 OU2      -0.112100
     32 C22         -0.6510    42.4360    12.9730 c3         1 OU2      -0.077400
     33 C23         -0.5510    41.2630    12.0010 c3         1 OU2      -0.068400
     34 C24          0.8630    40.7920    11.6630 c6         1 OU2      -0.064700
     35 C27          0.8110    39.6250    10.6750 c6         1 OU2      -0.070400
     36 C28          2.2010    39.1300    10.2900 c6         1 OU2      -0.073900
     37 C29          3.0540    40.2630     9.7290 c6         1 OU2      -0.073400
     38 C26          3.1270    41.4250    10.7120 c6         1 OU2      -0.073900
     39 C25          1.7350    41.9160    11.1030 c6         1 OU2      -0.070400
     40 H1          -3.7460    35.0910    25.9340 ha         1 OU2       0.128000
     41 H2          -4.2750    35.8910    28.2110 ha         1 OU2       0.120000
     42 H3          -1.2360    34.4640    22.1450 h4         1 OU2       0.032100
     43 H4          -1.5960    34.8100    19.9400 hn         1 OU2       0.317500
     44 H5          -3.3640    35.6000    17.8420 h1         1 OU2       0.056700
     45 H6          -1.8630    34.7130    17.7160 h1         1 OU2       0.056700
     46 H7          -0.0420    36.9340    18.9400 ha         1 OU2       0.117000
     47 H8          -1.4560    40.9250    14.9920 hn         1 OU2       0.326500
     48 H9           1.0580    38.8380    17.8660 ha         1 OU2       0.122000
     49 H10         -1.9970    38.8820    14.8500 ha         1 OU2       0.122000
     50 H11          1.7560    42.9670    15.9820 hn         1 OU2       0.330500
     51 H12         -4.1720    38.6790    23.4530 hn         1 OU2       0.496500
     52 H13         -4.1660    38.4140    21.7720 hn         1 OU2       0.496500
     53 H14         -2.3310    39.0030    24.8990 ha         1 OU2       0.128000
     54 H15         -2.9210    39.8130    27.1500 ha         1 OU2       0.120000
     55 H16         -3.8850    38.2560    28.8180 ha         1 OU2       0.119000
     56 H17         -3.0780    36.9860    15.9240 ha         1 OU2       0.117000
     57 H18          1.1260    42.0250    14.1040 h1         1 OU2       0.084700
     58 H19          0.0150    44.7440    17.4980 h1         1 OU2       0.051200
     59 H20          1.6570    44.2670    17.8740 h1         1 OU2       0.051200
     60 H21          1.5380    46.6990    17.3380 hc         1 OU2       0.041033
     61 H22          2.5350    45.8610    16.1490 hc         1 OU2       0.041033
     62 H23          0.8810    46.3320    15.7440 hc         1 OU2       0.041033
     63 H24         -0.2350    43.3390    12.5190 hc         1 OU2       0.059700
     64 H25         -1.7040    42.6570    13.1600 hc         1 OU2       0.059700
     65 H26         -1.1200    40.4130    12.3910 hc         1 OU2       0.039700
     66 H27         -1.0550    41.5560    11.0740 hc         1 OU2       0.039700
     67 H28          1.3400    40.4190    12.5800 hc         1 OU2       0.053700
     68 H29          0.2230    38.8060    11.1020 hc         1 OU2       0.036450
     69 H30          0.2790    39.9500     9.7720 hc         1 OU2       0.036450
     70 H31          2.1220    38.3170     9.5640 hc         1 OU2       0.039200
     71 H32          2.6950    38.7110    11.1730 hc         1 OU2       0.039200
     72 H33          2.6200    40.6100     8.7850 hc         1 OU2       0.037200
     73 H34          4.0580    39.9010     9.4920 hc         1 OU2       0.037200
     74 H35          3.7080    42.2480    10.2890 hc         1 OU2       0.039200
     75 H36          3.6610    41.1020    11.6130 hc         1 OU2       0.039200
     76 H37          1.8270    42.7270    11.8310 hc         1 OU2       0.036450
     77 H38          1.2390    42.3450    10.2240 hc         1 OU2       0.036450
@<TRIPOS>BOND
     1     1     2 ar  
     2     1    20 ar  
     3     1    40 1   
     4     2    23 ar  
     5     2    41 1   
     6     3     4 2   
     7     3     6 1   
     8     3    42 1   
     9     4    19 1   
    10     5     6 2   
    11     5    18 1   
    12     5    19 1   
    13     6     8 1   
    14     7     8 1   
    15     7     9 1   
    16     7    43 1   
    17     8    17 2   
    18     9    10 1   
    19     9    44 1   
    20     9    45 1   
    21    10    11 ar  
    22    10    24 ar  
    23    11    13 ar  
    24    11    46 1   
    25    12    25 1   
    26    12    27 1   
    27    12    47 1   
    28    13    14 ar  
    29    13    48 1   
    30    14    15 ar  
    31    14    25 1   
    32    15    24 ar  
    33    15    49 1   
    34    16    28 1   
    35    16    30 1   
    36    16    50 1   
    37    18    51 1   
    38    18    52 1   
    39    19    20 1   
    40    20    21 ar  
    41    21    22 ar  
    42    21    53 1   
    43    22    23 ar  
    44    22    54 1   
    45    23    55 1   
    46    24    56 1   
    47    25    26 2   
    48    27    28 1   
    49    27    32 1   
    50    27    57 1   
    51    28    29 2   
    52    30    31 1   
    53    30    58 1   
    54    30    59 1   
    55    31    60 1   
    56    31    61 1   
    57    31    62 1   
    58    32    33 1   
    59    32    63 1   
    60    32    64 1   
    61    33    34 1   
    62    33    65 1   
    63    33    66 1   
    64    34    35 1   
    65    34    39 1   
    66    34    67 1   
    67    35    36 1   
    68    35    68 1   
    69    35    69 1   
    70    36    37 1   
    71    36    70 1   
    72    36    71 1   
    73    37    38 1   
    74    37    72 1   
    75    37    73 1   
    76    38    39 1   
    77    38    74 1   
    78    38    75 1   
    79    39    76 1   
    80    39    77 1   
@<TRIPOS>SUBSTRUCTURE
     1 OU2         1 TEMP              0 ****  ****    0 ROOT
