@<TRIPOS>MOLECULE
OU3
   45    47     1     0     0
SMALL
abcg2


@<TRIPOS>ATOM
      1 C15        -10.6040    17.4360    71.6960 c3         1 OU3      -0.115700
      2 C17         -8.9310    18.5050    73.2310 c3         1 OU3      -0.090600
      3 C20        -10.6390    13.8870    71.8290 ca         1 OU3      -0.069000
      4 C21        -10.8480    13.0910    72.9530 ca         1 OU3      -0.102300
      5 C22        -12.0850    13.2140    73.5760 ca         1 OU3       0.171000
      6 C24        -12.8490    14.8440    72.0140 ca         1 OU3      -0.075000
      7 C26         -9.8010    12.1520    73.4750 c3         1 OU3      -0.042800
      8 C01        -11.3820    16.1820    65.4400 ca         1 OU3       0.045100
      9 C02        -10.9180    17.4930    65.6490 ca         1 OU3       0.187100
     10 C03        -10.6850    17.9730    66.9310 ca         1 OU3      -0.217000
     11 C04        -10.9150    17.1540    68.0370 ca         1 OU3       0.240400
     12 C05        -11.3820    15.8380    67.8400 ca         1 OU3      -0.299600
     13 C06        -11.6120    15.3610    66.5330 ca         1 OU3       0.157100
     14 C11        -10.8950    16.8790    70.3300 cc         1 OU3       0.522900
     15 C12        -11.6300    14.9990    68.9740 c          1 OU3       0.588600
     16 C16         -9.1180    17.7950    71.8910 c3         1 OU3      -0.057700
     17 C18         -8.2210    16.5610    71.7920 c3         1 OU3      -0.090600
     18 C19        -11.6210    14.7560    71.3760 ca         1 OU3       0.015600
     19 C23        -13.0850    14.0620    73.1380 ca         1 OU3      -0.139000
     20 N10        -10.6840    17.6370    69.3060 nd         1 OU3      -0.632100
     21 N14        -11.3640    15.5730    70.2150 n          1 OU3      -0.249500
     22 O07        -12.0570    14.1070    66.2940 oh         1 OU3      -0.565100
     23 O08        -11.5960    15.7500    64.1650 oh         1 OU3      -0.514100
     24 O09        -10.7170    18.2410    64.5380 oh         1 OU3      -0.505100
     25 O13        -12.0570    13.8340    68.8940 o          1 OU3      -0.577000
     26 H1         -11.2040    18.3430    71.8050 hc         1 OU3       0.069700
     27 H2         -10.9130    16.7480    72.4790 hc         1 OU3       0.069700
     28 H3          -9.5510    19.4010    73.2940 hc         1 OU3       0.036367
     29 H4          -9.2050    17.8450    74.0590 hc         1 OU3       0.036367
     30 H5          -7.8890    18.8000    73.3690 hc         1 OU3       0.036367
     31 H6          -9.6940    13.8330    71.3050 ha         1 OU3       0.130000
     32 H7         -13.6060    15.5230    71.6450 ha         1 OU3       0.131000
     33 H8          -9.5170    12.4110    74.4970 hc         1 OU3       0.052033
     34 H9         -10.1700    11.1240    73.4930 hc         1 OU3       0.052033
     35 H10         -8.9110    12.1890    72.8490 hc         1 OU3       0.052033
     36 H11        -10.3260    18.9840    67.0770 ha         1 OU3       0.138000
     37 H12         -8.8440    18.4870    71.0900 hc         1 OU3       0.068700
     38 H13         -7.1720    16.8420    71.9020 hc         1 OU3       0.036367
     39 H14         -8.4660    15.8440    72.5800 hc         1 OU3       0.036367
     40 H15         -8.3330    16.0550    70.8310 hc         1 OU3       0.036367
     41 H16        -14.0260    14.1060    73.6700 ha         1 OU3       0.140000
     42 H17        -12.1760    13.6820    67.1820 ho         1 OU3       0.525000
     43 H18        -11.9210    14.8380    64.2010 ho         1 OU3       0.478000
     44 H19        -10.4110    19.1250    64.7850 ho         1 OU3       0.466000
     45 F25        -12.3250    12.4570    74.6770 f          1 OU3      -0.179000
@<TRIPOS>BOND
     1     1    14 1   
     2     1    16 1   
     3     1    26 1   
     4     1    27 1   
     5     2    16 1   
     6     2    28 1   
     7     2    29 1   
     8     2    30 1   
     9     3     4 ar  
    10     3    18 ar  
    11     3    31 1   
    12     4     5 ar  
    13     4     7 1   
    14     5    19 ar  
    15     5    45 1   
    16     6    18 ar  
    17     6    19 ar  
    18     6    32 1   
    19     7    33 1   
    20     7    34 1   
    21     7    35 1   
    22     8     9 ar  
    23     8    13 ar  
    24     8    23 1   
    25     9    10 ar  
    26     9    24 1   
    27    10    11 ar  
    28    10    36 1   
    29    11    12 ar  
    30    11    20 1   
    31    12    13 ar  
    32    12    15 1   
    33    13    22 1   
    34    14    20 2   
    35    14    21 1   
    36    15    21 1   
    37    15    25 2   
    38    16    17 1   
    39    16    37 1   
    40    17    38 1   
    41    17    39 1   
    42    17    40 1   
    43    18    21 1   
    44    19    41 1   
    45    22    42 1   
    46    23    43 1   
    47    24    44 1   
@<TRIPOS>SUBSTRUCTURE
     1 OU3         1 TEMP              0 ****  ****    0 ROOT
