@<TRIPOS>MOLECULE
OU3
   45    47     1     0     0
SMALL
No Charge or Current Charge


@<TRIPOS>ATOM
      1 C15        -10.6680    17.6180    71.6180 c3         1 OU3      -0.115700
      2 C17         -8.9360    18.6250    73.2080 c3         1 OU3      -0.090600
      3 C20        -10.6310    13.7800    71.7570 ca         1 OU3      -0.069000
      4 C21        -10.8560    12.9860    72.8990 ca         1 OU3      -0.102300
      5 C22        -11.9960    13.2310    73.6910 ca         1 OU3       0.171000
      6 C24        -12.6700    15.0310    72.2010 ca         1 OU3      -0.075000
      7 C26         -9.8820    11.8720    73.2640 c3         1 OU3      -0.042800
      8 C01        -11.3340    16.1580    65.3610 ca         1 OU3       0.045100
      9 C02        -11.0260    17.5210    65.5600 ca         1 OU3       0.187100
     10 C03        -10.8710    18.0120    66.8640 ca         1 OU3      -0.217000
     11 C04        -11.0170    17.1710    67.9780 ca         1 OU3       0.240400
     12 C05        -11.3220    15.8200    67.7880 ca         1 OU3      -0.299600
     13 C06        -11.4810    15.3150    66.4790 ca         1 OU3       0.157100
     14 C11        -10.9670    16.9510    70.2830 cc         1 OU3       0.522900
     15 C12        -11.4780    14.9670    68.9890 c          1 OU3       0.588600
     16 C16         -9.1530    17.7870    71.9270 c3         1 OU3      -0.057700
     17 C18         -8.4110    16.4340    72.0210 c3         1 OU3      -0.090600
     18 C19        -11.5100    14.8300    71.4270 ca         1 OU3       0.015600
     19 C23        -12.9040    14.2420    73.3400 ca         1 OU3      -0.139000
     20 N10        -10.8310    17.7570    69.2270 nd         1 OU3      -0.632100
     21 N14        -11.3080    15.5900    70.2230 n          1 OU3      -0.249500
     22 O07        -11.7820    13.9970    66.2770 oh         1 OU3      -0.565100
     23 O08        -11.4960    15.6320    64.1010 oh         1 OU3      -0.514100
     24 O09        -10.8760    18.3720    64.4980 oh         1 OU3      -0.505100
     25 O13        -11.7600    13.7770    68.8880 o          1 OU3      -0.577000
     26 H1         -11.1280    18.6140    71.6080 hc         1 OU3       0.069700
     27 H2         -11.1430    17.1090    72.4600 hc         1 OU3       0.069700
     28 H3          -9.4130    19.6080    73.1160 hc         1 OU3       0.036367
     29 H4          -9.3610    18.1180    74.0840 hc         1 OU3       0.036367
     30 H5          -7.8660    18.7850    73.3900 hc         1 OU3       0.036367
     31 H6          -9.7640    13.5910    71.1280 ha         1 OU3       0.130000
     32 H7         -13.3860    15.8030    71.9230 ha         1 OU3       0.131000
     33 H8          -9.4650    12.0280    74.2670 hc         1 OU3       0.052033
     34 H9         -10.3820    10.8960    73.2580 hc         1 OU3       0.052033
     35 H10         -9.0410    11.8170    72.5630 hc         1 OU3       0.052033
     36 H11        -10.6320    19.0600    67.0240 ha         1 OU3       0.138000
     37 H12         -8.7040    18.3490    71.0970 hc         1 OU3       0.068700
     38 H13         -7.3470    16.5920    72.2320 hc         1 OU3       0.036367
     39 H14         -8.8290    15.8150    72.8240 hc         1 OU3       0.036367
     40 H15         -8.4840    15.8790    71.0790 hc         1 OU3       0.036367
     41 H16        -13.7900    14.4080    73.9480 ha         1 OU3       0.140000
     42 H17        -11.8490    13.5900    67.1820 ho         1 OU3       0.525000
     43 H18        -11.7030    14.6770    64.2210 ho         1 OU3       0.478000
     44 H19        -10.6670    19.2650    64.8430 ho         1 OU3       0.466000
     45 F25        -12.2370    12.4800    74.7900 f          1 OU3      -0.179000
@<TRIPOS>BOND
     1     1    14 1   
     2     1    16 1   
     3     1    26 1   
     4     1    27 1   
     5     2    16 1   
     6     2    28 1   
     7     2    29 1   
     8     2    30 1   
     9     3     4 ar  
    10     3    18 ar  
    11     3    31 1   
    12     4     5 ar  
    13     4     7 1   
    14     5    19 ar  
    15     5    45 1   
    16     6    18 ar  
    17     6    19 ar  
    18     6    32 1   
    19     7    33 1   
    20     7    34 1   
    21     7    35 1   
    22     8     9 ar  
    23     8    13 ar  
    24     8    23 1   
    25     9    10 ar  
    26     9    24 1   
    27    10    11 ar  
    28    10    36 1   
    29    11    12 ar  
    30    11    20 1   
    31    12    13 ar  
    32    12    15 1   
    33    13    22 1   
    34    14    20 2   
    35    14    21 1   
    36    15    21 1   
    37    15    25 2   
    38    16    17 1   
    39    16    37 1   
    40    17    38 1   
    41    17    39 1   
    42    17    40 1   
    43    18    21 1   
    44    19    41 1   
    45    22    42 1   
    46    23    43 1   
    47    24    44 1   
@<TRIPOS>SUBSTRUCTURE
     1 OU3         1 TEMP              0 ****  ****    0 ROOT
