@<TRIPOS>MOLECULE
OU4
   47    50     1     0     0
SMALL
No Charge or Current Charge


@<TRIPOS>ATOM
      1 C02         14.5660     0.6790    23.7360 ca         1 OU4       0.615900
      2 C03         15.0230     1.3840    22.6250 ca         1 OU4      -0.214000
      3 C04         14.2270     2.4210    22.1150 ca         1 OU4       0.007700
      4 C05         12.9970     2.6830    22.7690 ca         1 OU4      -0.123000
      5 C06         12.1320     3.7080    22.3280 ca         1 OU4      -0.077000
      6 C10         12.6320     1.8930    23.8940 ca         1 OU4       0.326000
      7 C07         10.9200     3.9490    22.9920 ca         1 OU4      -0.123000
      8 C08         10.5320     3.1780    24.1120 cp         1 OU4      -0.002000
      9 C09         11.4110     2.1540    24.5410 ca         1 OU4      -0.098000
     10 C11         14.7040     3.2120    20.9010 c3         1 OU4      -0.055800
     11 C21          9.2370     3.4360    24.8190 cp         1 OU4      -0.073000
     12 C22          8.7320     4.7510    24.9610 ca         1 OU4      -0.058000
     13 C23          7.5190     4.9950    25.6250 ca         1 OU4      -0.204000
     14 C24          6.7740     3.9250    26.1660 ca         1 OU4       0.152100
     15 C25          7.2570     2.6050    26.0350 ca         1 OU4      -0.105300
     16 C26          8.4770     2.3740    25.3680 ca         1 OU4      -0.048000
     17 C27          6.4920     1.4160    26.6080 c3         1 OU4       0.204100
     18 C30          5.0100     5.4480    27.0060 c3         1 OU4       0.150300
     19 C32          2.1410     5.7540    29.1500 cc         1 OU4       0.427900
     20 C34          3.7040     5.3310    27.7580 cd         1 OU4       0.220300
     21 C35          2.7100     4.4060    27.5800 cc         1 OU4       0.116900
     22 N01         13.4230     0.8990    24.3630 nb         1 OU4      -0.759000
     23 N02         15.2320    -0.3300    24.3010 nv         1 OU4      -1.065900
     24 N28          5.7390     0.7010    25.5600 n8         1 OU4      -0.989200
     25 N33          3.3330     6.2000    28.7690 nd         1 OU4      -0.656000
     26 O29          5.5760     4.1340    26.8240 os         1 OU4      -0.343100
     27 O31          1.7050     4.6590    28.4590 os         1 OU4      -0.255000
     28 H1          15.9760     1.1320    22.1710 ha         1 OU4       0.117000
     29 H2          12.3820     4.3260    21.4690 ha         1 OU4       0.110000
     30 H3          10.2670     4.7350    22.6220 ha         1 OU4       0.114000
     31 H4          11.1490     1.5540    25.4070 ha         1 OU4       0.130000
     32 H5          13.9970     3.1220    20.0680 hc         1 OU4       0.048367
     33 H6          14.8140     4.2760    21.1420 hc         1 OU4       0.048367
     34 H7          15.6780     2.8570    20.5420 hc         1 OU4       0.048367
     35 H8           9.2940     5.5940    24.5650 ha         1 OU4       0.113000
     36 H9           7.1780     6.0220    25.7100 ha         1 OU4       0.114000
     37 H10          8.8300     1.3510    25.2610 ha         1 OU4       0.121000
     38 H11          5.7920     1.7420    27.3890 h1         1 OU4       0.038200
     39 H12          7.2010     0.7140    27.0700 h1         1 OU4       0.038200
     40 H13          4.8150     5.9220    26.0360 h1         1 OU4       0.049200
     41 H14          5.6960     6.0880    27.5740 h1         1 OU4       0.049200
     42 H16          2.6040     3.5690    26.9030 h4         1 OU4       0.069100
     43 H17         14.6760    -0.8920    24.9340 hn         1 OU4       0.475000
     44 H18         15.9040    -0.8260    23.7270 hn         1 OU4       0.475000
     45 H19          5.1810    -0.0400    26.0000 hn         1 OU4       0.393000
     46 H20          5.0360     1.3400    25.1740 hn         1 OU4       0.393000
     47 H15          1.5030     6.1610    29.9260 h5         1 OU4       0.086100
@<TRIPOS>BOND
     1     1     2 ar  
     2     1    22 ar  
     3     1    23 1   
     4     2     3 ar  
     5     2    28 1   
     6     3     4 ar  
     7     3    10 1   
     8     4     5 ar  
     9     4     6 ar  
    10     5     7 ar  
    11     5    29 1   
    12     6     9 ar  
    13     6    22 ar  
    14     7     8 ar  
    15     7    30 1   
    16     8     9 ar  
    17     8    11 1   
    18     9    31 1   
    19    10    32 1   
    20    10    33 1   
    21    10    34 1   
    22    11    12 ar  
    23    11    16 ar  
    24    12    13 ar  
    25    12    35 1   
    26    13    14 ar  
    27    13    36 1   
    28    14    15 ar  
    29    14    26 1   
    30    15    16 ar  
    31    15    17 1   
    32    16    37 1   
    33    17    24 1   
    34    17    38 1   
    35    17    39 1   
    36    18    20 1   
    37    18    26 1   
    38    18    40 1   
    39    18    41 1   
    40    19    25 2   
    41    19    27 1   
    42    19    47 1   
    43    20    21 2   
    44    20    25 1   
    45    21    27 1   
    46    21    42 1   
    47    23    43 1   
    48    23    44 1   
    49    24    45 1   
    50    24    46 1   
@<TRIPOS>SUBSTRUCTURE
     1 OU4         1 TEMP              0 ****  ****    0 ROOT
