@<TRIPOS>MOLECULE
OU4
   47    50     1     0     0
SMALL
bcc


@<TRIPOS>ATOM
      1 C02         14.5650     0.7510    23.8870 ca         1 OU4       0.681200
      2 C03         14.9980     1.4450    22.7150 ca         1 OU4      -0.297300
      3 C04         14.2060     2.3990    22.1560 ca         1 OU4       0.007700
      4 C05         12.9510     2.6790    22.7790 ca         1 OU4      -0.188300
      5 C06         12.0450     3.6440    22.3000 ca         1 OU4      -0.095000
      6 C10         12.6100     1.9390    23.9370 ca         1 OU4       0.456600
      7 C07         10.8530     3.8750    22.9350 ca         1 OU4      -0.141000
      8 C08         10.5000     3.1470    24.0940 cp         1 OU4      -0.002000
      9 C09         11.3790     2.1980    24.5730 ca         1 OU4      -0.181300
     10 C11         14.6310     3.1350    20.9240 c3         1 OU4      -0.055800
     11 C21          9.2160     3.4060    24.7720 cp         1 OU4      -0.073000
     12 C22          8.6740     4.6860    24.8270 ca         1 OU4      -0.076000
     13 C23          7.4690     4.9330    25.4700 ca         1 OU4      -0.222000
     14 C24          6.7770     3.8890    26.0750 ca         1 OU4       0.152100
     15 C25          7.2970     2.5860    26.0390 ca         1 OU4      -0.105300
     16 C26          8.4990     2.3750    25.3870 ca         1 OU4      -0.066000
     17 C27          6.5500     1.4440    26.6750 c3         1 OU4       0.204100
     18 C30          5.0250     5.3270    26.8130 c3         1 OU4       0.127100
     19 C32          2.5190     4.8710    29.2600 cc         1 OU4       0.472300
     20 C34          3.7720     5.2010    27.5950 cd         1 OU4       0.220300
     21 C35          2.4990     5.3710    27.1840 cc         1 OU4       0.161300
     22 N01         13.4160     0.9900    24.4710 nb         1 OU4      -0.759000
     23 N02         15.3920    -0.1710    24.4450 nv         1 OU4      -0.955500
     24 N28          5.3980     1.0440    25.8710 n8         1 OU4      -0.878800
     25 N33          3.7620     4.8790    28.9390 nd         1 OU4      -0.656000
     26 O29          5.5980     4.0340    26.7130 os         1 OU4      -0.319900
     27 O31          1.6930     5.1630    28.2500 os         1 OU4      -0.343800
     28 H1          15.9600     1.2030    22.2800 ha         1 OU4       0.135000
     29 H2          12.2860     4.2080    21.4080 ha         1 OU4       0.128000
     30 H3          10.1680     4.6080    22.5280 ha         1 OU4       0.132000
     31 H4          11.1500     1.6390    25.4720 ha         1 OU4       0.148000
     32 H5          13.9260     2.9740    20.1070 hc         1 OU4       0.048367
     33 H6          14.6740     4.2110    21.1010 hc         1 OU4       0.048367
     34 H7          15.6140     2.8100    20.5900 hc         1 OU4       0.048367
     35 H8           9.2010     5.5200    24.3820 ha         1 OU4       0.131000
     36 H9           7.0950     5.9470    25.4930 ha         1 OU4       0.132000
     37 H10          8.8820     1.3610    25.3410 ha         1 OU4       0.139000
     38 H11          6.2920     1.7100    27.7080 h1         1 OU4       0.038200
     39 H12          7.2260     0.5890    26.7400 h1         1 OU4       0.038200
     40 H13          4.8060     5.7380    25.8230 h1         1 OU4       0.049200
     41 H14          5.7150     6.0120    27.3170 h1         1 OU4       0.049200
     42 H16          2.0410     5.6260    26.2430 h4         1 OU4       0.069100
     43 H17         14.9880    -0.7970    25.1220 hn         1 OU4       0.419800
     44 H18         16.1180    -0.5730    23.8770 hn         1 OU4       0.419800
     45 H19          4.9620     0.2440    26.3120 hn         1 OU4       0.337800
     46 H20          4.7010     1.7780    25.9000 hn         1 OU4       0.337800
     47 H15          2.0780     4.6660    30.2240 h5         1 OU4       0.086100
@<TRIPOS>BOND
     1     1     2 ar  
     2     1    22 ar  
     3     1    23 1   
     4     2     3 ar  
     5     2    28 1   
     6     3     4 ar  
     7     3    10 1   
     8     4     5 ar  
     9     4     6 ar  
    10     5     7 ar  
    11     5    29 1   
    12     6     9 ar  
    13     6    22 ar  
    14     7     8 ar  
    15     7    30 1   
    16     8     9 ar  
    17     8    11 1   
    18     9    31 1   
    19    10    32 1   
    20    10    33 1   
    21    10    34 1   
    22    11    12 ar  
    23    11    16 ar  
    24    12    13 ar  
    25    12    35 1   
    26    13    14 ar  
    27    13    36 1   
    28    14    15 ar  
    29    14    26 1   
    30    15    16 ar  
    31    15    17 1   
    32    16    37 1   
    33    17    24 1   
    34    17    38 1   
    35    17    39 1   
    36    18    20 1   
    37    18    26 1   
    38    18    40 1   
    39    18    41 1   
    40    19    25 2   
    41    19    27 1   
    42    19    47 1   
    43    20    21 2   
    44    20    25 1   
    45    21    27 1   
    46    21    42 1   
    47    23    43 1   
    48    23    44 1   
    49    24    45 1   
    50    24    46 1   
@<TRIPOS>SUBSTRUCTURE
     1 OU4         1 TEMP              0 ****  ****    0 ROOT
