@<TRIPOS>MOLECULE
OU5
   53    56     1     0     0
SMALL
No Charge or Current Charge


@<TRIPOS>ATOM
      1 C14         19.3810    -6.8930     1.4860 c          1 OU5       0.607100
      2 C2          19.0960    -8.2520     3.6830 c3         1 OU5      -0.067400
      3 C6          16.5530    -5.9430     3.2070 c          1 OU5       0.617000
      4 C19         18.4260    -7.1780    -1.9130 c6         1 OU5       0.200500
      5 C13         17.1530    -6.7040     6.7130 cx         1 OU5      -0.118900
      6 C11         17.9290    -7.7160     5.8910 cx         1 OU5      -0.139700
      7 C16         18.5030    -5.0000     0.0580 c6         1 OU5       0.080000
      8 C1          19.1560    -8.2780     2.1270 c3         1 OU5      -0.156400
      9 C12         18.6650    -6.6240     6.6430 cx         1 OU5      -0.118900
     10 C17         19.1780    -4.8430    -1.3300 c6         1 OU5       0.181800
     11 C20         17.7950    -7.2910    -0.4900 c6         1 OU5       0.098000
     12 C22         18.6410    -5.4410    -3.7270 ca         1 OU5       0.362000
     13 C23         19.7330    -4.7330    -4.2560 ca         1 OU5      -0.236500
     14 C24         19.7820    -4.4360    -5.6230 ca         1 OU5       0.231000
     15 C25         18.7480    -4.8370    -6.4750 ca         1 OU5      -0.237000
     16 C26         17.6600    -5.5410    -5.9480 ca         1 OU5       0.231000
     17 C27         17.6050    -5.8420    -4.5820 ca         1 OU5      -0.236500
     18 C3          17.8590    -7.5620     4.3370 c5         1 OU5       0.068400
     19 C30         19.7990    -7.8990    -1.9960 c3         1 OU5      -0.123100
     20 C4          16.5200    -8.1720     3.7770 c          1 OU5       0.565000
     21 F28         16.6550    -5.9290    -6.7610 f          1 OU5      -0.174500
     22 F29         20.8370    -3.7590    -6.1240 f          1 OU5      -0.174500
     23 N15         18.4780    -6.4180     0.5090 n          1 OU5      -0.404800
     24 N18         18.5740    -5.7540    -2.3530 nh         1 OU5      -0.798400
     25 N5          15.9260    -7.1210     3.1750 ns         1 OU5      -0.490500
     26 N7          17.7090    -6.1490     3.8920 ns         1 OU5      -0.519900
     27 O21         20.3220    -6.1980     1.8500 o          1 OU5      -0.617100
     28 O8          16.0630    -9.3040     3.8400 o          1 OU5      -0.503000
     29 O9          16.1660    -4.8970     2.7260 o          1 OU5      -0.546000
     30 H1          19.1370    -9.2920     4.0290 hc         1 OU5       0.075700
     31 H2          20.0140    -7.7840     4.0610 hc         1 OU5       0.075700
     32 H3          17.7500    -7.7080    -2.5990 h1         1 OU5       0.069700
     33 H4          16.5780    -5.9300     6.2130 hc         1 OU5       0.077450
     34 H5          16.7130    -7.0490     7.6460 hc         1 OU5       0.077450
     35 H6          17.9920    -8.7250     6.2950 hc         1 OU5       0.098700
     36 H7          19.0180    -4.3640     0.7910 h1         1 OU5       0.076200
     37 H8          17.4690    -4.6330    -0.0090 h1         1 OU5       0.076200
     38 H9          18.2560    -8.7650     1.7460 hc         1 OU5       0.066200
     39 H10         20.0040    -8.9050     1.8310 hc         1 OU5       0.066200
     40 H11         19.2250    -6.9150     7.5280 hc         1 OU5       0.077450
     41 H12         19.1090    -5.8010     6.0890 hc         1 OU5       0.077450
     42 H13         20.2530    -5.0500    -1.2270 h1         1 OU5       0.051700
     43 H14         19.0750    -3.7950    -1.6460 h1         1 OU5       0.051700
     44 H15         16.7410    -6.9850    -0.5520 h1         1 OU5       0.064200
     45 H16         17.7970    -8.3460    -0.1970 h1         1 OU5       0.064200
     46 H17         20.5520    -4.4230    -3.6170 ha         1 OU5       0.136000
     47 H18         18.7890    -4.6050    -7.5350 ha         1 OU5       0.152000
     48 H19         16.7480    -6.3770    -4.1870 ha         1 OU5       0.136000
     49 H20         19.7010    -8.9570    -1.7270 hc         1 OU5       0.046033
     50 H21         20.2060    -7.8550    -3.0130 hc         1 OU5       0.046033
     51 H22         20.5360    -7.4520    -1.3200 hc         1 OU5       0.046033
     52 H23         15.0300    -7.2160     2.7230 hn         1 OU5       0.353500
     53 H24         18.3590    -5.3850     4.0270 hn         1 OU5       0.360500
@<TRIPOS>BOND
     1     1     8 1   
     2     1    23 1   
     3     1    27 2   
     4     2     8 1   
     5     2    18 1   
     6     2    30 1   
     7     2    31 1   
     8     3    25 1   
     9     3    26 1   
    10     3    29 2   
    11     4    11 1   
    12     4    19 1   
    13     4    24 1   
    14     4    32 1   
    15     5     6 1   
    16     5     9 1   
    17     5    33 1   
    18     5    34 1   
    19     6     9 1   
    20     6    18 1   
    21     6    35 1   
    22     7    10 1   
    23     7    23 1   
    24     7    36 1   
    25     7    37 1   
    26     8    38 1   
    27     8    39 1   
    28     9    40 1   
    29     9    41 1   
    30    10    24 1   
    31    10    42 1   
    32    10    43 1   
    33    11    23 1   
    34    11    44 1   
    35    11    45 1   
    36    12    13 ar  
    37    12    17 ar  
    38    12    24 1   
    39    13    14 ar  
    40    13    46 1   
    41    14    15 ar  
    42    14    22 1   
    43    15    16 ar  
    44    15    47 1   
    45    16    17 ar  
    46    16    21 1   
    47    17    48 1   
    48    18    20 1   
    49    18    26 1   
    50    19    49 1   
    51    19    50 1   
    52    19    51 1   
    53    20    25 1   
    54    20    28 2   
    55    25    52 1   
    56    26    53 1   
@<TRIPOS>SUBSTRUCTURE
     1 OU5         1 TEMP              0 ****  ****    0 ROOT
