@<TRIPOS>MOLECULE
OU5
   53    56     1     0     0
SMALL
abcg2


@<TRIPOS>ATOM
      1 C14         19.5310    -6.5970     1.5770 c          1 OU5       0.607100
      2 C2          19.1970    -8.1260     3.5670 c3         1 OU5      -0.067400
      3 C6          16.4490    -6.1360     3.0320 c          1 OU5       0.617000
      4 C19         18.2410    -6.9210    -1.6740 c6         1 OU5       0.200500
      5 C13         16.9550    -6.9990     6.5480 cx         1 OU5      -0.118900
      6 C11         17.8880    -7.7710     5.6710 cx         1 OU5      -0.139700
      7 C16         19.0680    -4.7720     0.0330 c6         1 OU5       0.080000
      8 C1          19.2960    -8.0220     2.0470 c3         1 OU5      -0.156400
      9 C12         18.4260    -6.7080     6.5730 cx         1 OU5      -0.118900
     10 C17         19.5530    -4.8610    -1.4050 c6         1 OU5       0.181800
     11 C20         17.7820    -6.7630    -0.2280 c6         1 OU5       0.098000
     12 C22         18.6480    -5.4580    -3.5880 ca         1 OU5       0.362000
     13 C23         19.6870    -4.7620    -4.2240 ca         1 OU5      -0.236500
     14 C24         19.6540    -4.6030    -5.5960 ca         1 OU5       0.231000
     15 C25         18.6520    -5.1010    -6.4020 ca         1 OU5      -0.237000
     16 C26         17.6470    -5.7880    -5.7450 ca         1 OU5       0.231000
     17 C27         17.6160    -5.9810    -4.3840 ca         1 OU5      -0.236500
     18 C3          17.8880    -7.5950     4.1620 c5         1 OU5       0.068400
     19 C30         19.3660    -7.9420    -1.8100 c3         1 OU5      -0.123100
     20 C4          16.6850    -8.3470     3.5920 c          1 OU5       0.565000
     21 F28         16.6350    -6.2790    -6.4750 f          1 OU5      -0.174500
     22 F29         20.6670    -3.9470    -6.1790 f          1 OU5      -0.174500
     23 N15         18.7930    -6.0930     0.5630 n          1 OU5      -0.404800
     24 N18         18.6070    -5.6070    -2.2140 nh         1 OU5      -0.798400
     25 N5          15.9070    -7.4200     2.9730 ns         1 OU5      -0.490500
     26 N7          17.5880    -6.2450     3.7460 ns         1 OU5      -0.519900
     27 O21         20.4080    -5.9370     2.1230 o          1 OU5      -0.617100
     28 O8          16.4730    -9.5300     3.6880 o          1 OU5      -0.503000
     29 O9          15.9650    -5.1500     2.5260 o          1 OU5      -0.546000
     30 H1          19.2930    -9.1740     3.8580 hc         1 OU5       0.075700
     31 H2          20.0270    -7.5970     4.0360 hc         1 OU5       0.075700
     32 H3          17.3720    -7.2870    -2.2200 h1         1 OU5       0.069700
     33 H4          16.3070    -6.2610     6.0920 hc         1 OU5       0.077450
     34 H5          16.5170    -7.5160     7.3910 hc         1 OU5       0.077450
     35 H6          18.0870    -8.7950     5.9670 hc         1 OU5       0.098700
     36 H7          19.8130    -4.2710     0.6420 h1         1 OU5       0.076200
     37 H8          18.1460    -4.1830     0.0710 h1         1 OU5       0.076200
     38 H9          18.4490    -8.5180     1.5780 hc         1 OU5       0.066200
     39 H10         20.1740    -8.5880     1.7250 hc         1 OU5       0.066200
     40 H11         19.0020    -7.0240     7.4330 hc         1 OU5       0.077450
     41 H12         18.7620    -5.7750     6.1370 hc         1 OU5       0.077450
     42 H13         20.5620    -5.2940    -1.4290 h1         1 OU5       0.051700
     43 H14         19.6280    -3.8440    -1.7910 h1         1 OU5       0.051700
     44 H15         16.8700    -6.1580    -0.2060 h1         1 OU5       0.064200
     45 H16         17.5300    -7.7370     0.1760 h1         1 OU5       0.064200
     46 H17         20.5300    -4.3670    -3.6760 ha         1 OU5       0.136000
     47 H18         18.6520    -4.9640    -7.4750 ha         1 OU5       0.152000
     48 H19         16.7710    -6.4980    -3.9500 ha         1 OU5       0.136000
     49 H20         19.0400    -8.9140    -1.4400 hc         1 OU5       0.046033
     50 H21         19.6560    -8.0630    -2.8540 hc         1 OU5       0.046033
     51 H22         20.2550    -7.6530    -1.2480 hc         1 OU5       0.046033
     52 H23         15.0340    -7.6220     2.5050 hn         1 OU5       0.353500
     53 H24         18.2160    -5.4660     3.8660 hn         1 OU5       0.360500
@<TRIPOS>BOND
     1     1     8 1   
     2     1    23 1   
     3     1    27 2   
     4     2     8 1   
     5     2    18 1   
     6     2    30 1   
     7     2    31 1   
     8     3    25 1   
     9     3    26 1   
    10     3    29 2   
    11     4    11 1   
    12     4    19 1   
    13     4    24 1   
    14     4    32 1   
    15     5     6 1   
    16     5     9 1   
    17     5    33 1   
    18     5    34 1   
    19     6     9 1   
    20     6    18 1   
    21     6    35 1   
    22     7    10 1   
    23     7    23 1   
    24     7    36 1   
    25     7    37 1   
    26     8    38 1   
    27     8    39 1   
    28     9    40 1   
    29     9    41 1   
    30    10    24 1   
    31    10    42 1   
    32    10    43 1   
    33    11    23 1   
    34    11    44 1   
    35    11    45 1   
    36    12    13 ar  
    37    12    17 ar  
    38    12    24 1   
    39    13    14 ar  
    40    13    46 1   
    41    14    15 ar  
    42    14    22 1   
    43    15    16 ar  
    44    15    47 1   
    45    16    17 ar  
    46    16    21 1   
    47    17    48 1   
    48    18    20 1   
    49    18    26 1   
    50    19    49 1   
    51    19    50 1   
    52    19    51 1   
    53    20    25 1   
    54    20    28 2   
    55    25    52 1   
    56    26    53 1   
@<TRIPOS>SUBSTRUCTURE
     1 OU5         1 TEMP              0 ****  ****    0 ROOT
