@<TRIPOS>MOLECULE
OU6
   60    64     1     0     0
SMALL
No Charge or Current Charge


@<TRIPOS>ATOM
      1 C17        224.1000   188.4280   201.8850 cy         1 OU6       0.165500
      2 C14        223.2230   190.8810   201.8520 c6         1 OU6       0.163800
      3 C18        225.3710   188.6560   202.7700 cy         1 OU6       0.119600
      4 C10        221.6140   189.0260   202.1430 ca         1 OU6       0.206000
      5 C11        221.2490   187.7620   202.6610 ca         1 OU6      -0.111000
      6 C12        219.8980   187.4120   202.8320 ca         1 OU6      -0.167000
      7 C15        222.1700   191.5160   200.9120 c6         1 OU6       0.154600
      8 C20        225.1340   188.5620   200.7150 cy         1 OU6       0.119600
      9 C24        212.5600   188.0610   204.6520 ca         1 OU6      -0.329500
     10 C25        212.8890   189.4180   204.7890 ca         1 OU6       0.037800
     11 C27        213.4830   191.6000   204.4080 cc         1 OU6       0.027200
     12 C28        213.3620   191.3760   205.7710 cd         1 OU6      -0.166200
     13 C29        212.9950   190.0030   206.0190 ca         1 OU6      -0.135800
     14 C31        212.4460   187.9280   207.1090 ca         1 OU6      -0.135300
     15 C01        213.7750   187.5260   200.7650 c3         1 OU6       0.179100
     16 C03        215.0830   187.6130   202.8820 c3         1 OU6       0.121800
     17 C04        216.3020   188.4780   202.4540 c          1 OU6       0.600100
     18 C07        218.8700   188.3110   202.5060 ca         1 OU6      -0.023000
     19 C08        219.2170   189.5840   202.0090 ca         1 OU6      -0.132000
     20 C09        220.5640   189.9390   201.8250 ca         1 OU6       0.119100
     21 C30        212.7810   189.2990   207.2090 ca         1 OU6       0.007000
     22 C32        212.2080   187.1080   208.3690 c3         1 OU6      -0.043800
     23 C33        212.3400   187.3140   205.8340 ca         1 OU6       0.030000
     24 C34        213.8490   192.7980   203.7290 cg         1 OU6       0.294700
     25 N02        213.7700   187.8740   202.2030 n3         1 OU6      -0.714500
     26 N06        217.5300   187.8800   202.7160 ns         1 OU6      -0.149000
     27 N13        222.9870   189.4100   201.9790 nh         1 OU6      -0.783400
     28 N26        213.1880   190.3580   203.8120 na         1 OU6      -0.197700
     29 N35        214.1250   193.7820   203.1640 n1         1 OU6      -0.423000
     30 O05        216.1750   189.5840   201.9360 o          1 OU6      -0.540100
     31 O16        220.8290   191.2130   201.3540 os         1 OU6      -0.335100
     32 O19        226.1660   188.0940   201.6610 oq         1 OU6      -0.446000
     33 O22        212.5410   185.8290   203.1550 o          1 OU6      -0.534000
     34 O23        211.2470   187.9040   202.3840 o          1 OU6      -0.534000
     35 S21        212.4040   187.2840   203.0370 sy         1 OU6       1.181600
     36 H171       223.7650   187.3890   201.9460 h1         1 OU6       0.080700
     37 H142       224.2250   191.0990   201.4570 h1         1 OU6       0.054700
     38 H141       223.1580   191.3590   202.8410 h1         1 OU6       0.054700
     39 H182       225.6240   189.7050   202.9610 h1         1 OU6       0.056450
     40 H181       225.4270   188.0520   203.6830 h1         1 OU6       0.056450
     41 H111       222.0020   187.0420   202.9620 ha         1 OU6       0.113000
     42 H121       219.6530   186.4310   203.2330 ha         1 OU6       0.110000
     43 H152       222.3010   192.6060   200.8650 h1         1 OU6       0.063700
     44 H151       222.3040   191.1110   199.8990 h1         1 OU6       0.063700
     45 H202       224.9870   187.8750   199.8750 h1         1 OU6       0.056450
     46 H201       225.3360   189.5820   200.3710 h1         1 OU6       0.056450
     47 H281       213.5330   192.1310   206.5360 ha         1 OU6       0.218000
     48 H013       214.6130   188.0070   200.2460 h1         1 OU6       0.056700
     49 H011       213.8640   186.4410   200.6230 h1         1 OU6       0.056700
     50 H012       212.8520   187.8610   200.2740 h1         1 OU6       0.056700
     51 H031       215.3630   186.5600   202.7460 h1         1 OU6       0.065200
     52 H032       215.0040   187.7680   203.9650 h1         1 OU6       0.065200
     53 H081       218.4610   190.3210   201.7600 ha         1 OU6       0.161000
     54 H301       212.8760   189.7910   208.1740 ha         1 OU6       0.122000
     55 H322       213.1140   186.5600   208.6550 hc         1 OU6       0.045033
     56 H323       211.9210   187.7440   209.2150 hc         1 OU6       0.045033
     57 H321       211.4050   186.3760   208.2210 hc         1 OU6       0.045033
     58 H331       212.0830   186.2570   205.7710 ha         1 OU6       0.132000
     59 H061       217.4620   186.9640   203.1400 hn         1 OU6       0.147000
     60 H261       213.2500   190.1520   202.8200 hn         1 OU6       0.390000
@<TRIPOS>BOND
     1     1     3 1   
     2     1     8 1   
     3     1    27 1   
     4     1    36 1   
     5     2     7 1   
     6     2    27 1   
     7     2    37 1   
     8     2    38 1   
     9     3    32 1   
    10     3    39 1   
    11     3    40 1   
    12     4     5 ar  
    13     4    20 ar  
    14     4    27 1   
    15     5     6 ar  
    16     5    41 1   
    17     6    18 ar  
    18     6    42 1   
    19     7    31 1   
    20     7    43 1   
    21     7    44 1   
    22     8    32 1   
    23     8    45 1   
    24     8    46 1   
    25     9    10 ar  
    26     9    23 ar  
    27     9    35 1   
    28    10    13 ar  
    29    10    28 1   
    30    11    12 2   
    31    11    24 1   
    32    11    28 1   
    33    12    13 1   
    34    12    47 1   
    35    13    21 ar  
    36    14    21 ar  
    37    14    22 1   
    38    14    23 ar  
    39    15    25 1   
    40    15    48 1   
    41    15    49 1   
    42    15    50 1   
    43    16    17 1   
    44    16    25 1   
    45    16    51 1   
    46    16    52 1   
    47    17    26 1   
    48    17    30 2   
    49    18    19 ar  
    50    18    26 1   
    51    19    20 ar  
    52    19    53 1   
    53    20    31 1   
    54    21    54 1   
    55    22    55 1   
    56    22    56 1   
    57    22    57 1   
    58    23    58 1   
    59    24    29 3   
    60    25    35 1   
    61    26    59 1   
    62    28    60 1   
    63    33    35 2   
    64    34    35 2   
@<TRIPOS>SUBSTRUCTURE
     1 OU6         1 TEMP              0 ****  ****    0 ROOT
