@<TRIPOS>MOLECULE
OU6
   60    64     1     0     0
SMALL
abcg2


@<TRIPOS>ATOM
      1 C17        224.4310   189.1850   202.2560 cy         1 OU6       0.165500
      2 C14        223.5160   189.9490   200.0710 c6         1 OU6       0.163800
      3 C18        224.9070   190.5040   202.8950 cy         1 OU6       0.119600
      4 C10        222.0560   189.0970   201.7430 ca         1 OU6       0.206000
      5 C11        221.6960   188.9010   203.0770 ca         1 OU6      -0.111000
      6 C12        220.3730   188.7840   203.4710 ca         1 OU6      -0.167000
      7 C15        222.5510   189.3930   199.0490 c6         1 OU6       0.154600
      8 C20        225.8900   189.0620   201.7900 cy         1 OU6       0.119600
      9 C24        212.3760   188.4720   204.2100 ca         1 OU6      -0.329500
     10 C25        212.4860   189.5160   205.1400 ca         1 OU6       0.037800
     11 C27        212.8490   191.3920   206.2610 cc         1 OU6       0.027200
     12 C28        212.2150   190.5620   207.1450 cd         1 OU6      -0.166200
     13 C29        211.9700   189.3510   206.4450 ca         1 OU6      -0.135800
     14 C31        211.2160   187.1330   205.8920 ca         1 OU6      -0.135300
     15 C01        214.6490   186.4700   202.7730 c3         1 OU6       0.179100
     16 C03        215.6400   188.6580   203.2190 c3         1 OU6       0.121800
     17 C04        216.8820   188.6080   202.3280 c          1 OU6       0.600100
     18 C07        219.3440   188.8890   202.5430 ca         1 OU6      -0.023000
     19 C08        219.6730   189.1150   201.2090 ca         1 OU6      -0.132000
     20 C09        221.0010   189.2230   200.8200 ca         1 OU6       0.119100
     21 C30        211.3400   188.1550   206.8100 ca         1 OU6       0.007000
     22 C32        210.5310   185.8420   206.2360 c3         1 OU6      -0.043800
     23 C33        211.7390   187.3100   204.5960 ca         1 OU6       0.030000
     24 C34        213.2950   192.7160   206.4720 cg         1 OU6       0.294700
     25 N02        214.5560   187.9160   202.6160 n3         1 OU6      -0.714500
     26 N06        218.0270   188.7910   203.0200 ns         1 OU6      -0.149000
     27 N13        223.3720   189.1810   201.2910 nh         1 OU6      -0.783400
     28 N26        213.0160   190.7610   205.0540 na         1 OU6      -0.197700
     29 N35        213.6520   193.7970   206.6530 n1         1 OU6      -0.423000
     30 O05        216.8030   188.4620   201.1250 o          1 OU6      -0.540100
     31 O16        221.2130   189.4720   199.5070 os         1 OU6      -0.335100
     32 O19        226.2630   190.2290   202.5280 oq         1 OU6      -0.446000
     33 O22        212.2410   187.7600   201.7070 o          1 OU6      -0.534000
     34 O23        213.2250   190.0020   202.2830 o          1 OU6      -0.534000
     35 S21        213.0500   188.5880   202.5800 sy         1 OU6       1.181600
     36 H171       224.2130   188.4220   203.0030 h1         1 OU6       0.080700
     37 H142       224.5230   189.8460   199.6730 h1         1 OU6       0.054700
     38 H141       223.3330   191.0210   200.2260 h1         1 OU6       0.054700
     39 H182       224.5150   191.4050   202.4110 h1         1 OU6       0.056450
     40 H181       224.7720   190.5970   203.9760 h1         1 OU6       0.056450
     41 H111       222.4520   188.8390   203.8470 ha         1 OU6       0.113000
     42 H121       220.1500   188.6250   204.5200 ha         1 OU6       0.110000
     43 H152       222.5990   189.9650   198.1230 h1         1 OU6       0.063700
     44 H151       222.8100   188.3540   198.8250 h1         1 OU6       0.063700
     45 H202       226.4060   188.1620   202.1340 h1         1 OU6       0.056450
     46 H201       226.0690   189.1680   200.7170 h1         1 OU6       0.056450
     47 H281       211.9570   190.7960   208.1650 ha         1 OU6       0.218000
     48 H013       215.6150   186.1440   202.3940 h1         1 OU6       0.056700
     49 H011       214.5650   186.1640   203.8200 h1         1 OU6       0.056700
     50 H012       213.8850   185.9670   202.1880 h1         1 OU6       0.056700
     51 H031       215.8550   188.2870   204.2270 h1         1 OU6       0.065200
     52 H032       215.3810   189.7130   203.3220 h1         1 OU6       0.065200
     53 H081       218.9140   189.2180   200.4500 ha         1 OU6       0.161000
     54 H301       210.9430   188.0410   207.8110 ha         1 OU6       0.122000
     55 H322       211.2140   184.9960   206.1440 hc         1 OU6       0.045033
     56 H323       210.1500   185.8550   207.2550 hc         1 OU6       0.045033
     57 H321       209.6920   185.6520   205.5660 hc         1 OU6       0.045033
     58 H331       211.6240   186.5050   203.8810 ha         1 OU6       0.132000
     59 H061       217.9410   188.8290   204.0250 hn         1 OU6       0.147000
     60 H261       213.4080   191.1780   204.2230 hn         1 OU6       0.390000
@<TRIPOS>BOND
     1     1     3 1   
     2     1     8 1   
     3     1    27 1   
     4     1    36 1   
     5     2     7 1   
     6     2    27 1   
     7     2    37 1   
     8     2    38 1   
     9     3    32 1   
    10     3    39 1   
    11     3    40 1   
    12     4     5 ar  
    13     4    20 ar  
    14     4    27 1   
    15     5     6 ar  
    16     5    41 1   
    17     6    18 ar  
    18     6    42 1   
    19     7    31 1   
    20     7    43 1   
    21     7    44 1   
    22     8    32 1   
    23     8    45 1   
    24     8    46 1   
    25     9    10 ar  
    26     9    23 ar  
    27     9    35 1   
    28    10    13 ar  
    29    10    28 1   
    30    11    12 2   
    31    11    24 1   
    32    11    28 1   
    33    12    13 1   
    34    12    47 1   
    35    13    21 ar  
    36    14    21 ar  
    37    14    22 1   
    38    14    23 ar  
    39    15    25 1   
    40    15    48 1   
    41    15    49 1   
    42    15    50 1   
    43    16    17 1   
    44    16    25 1   
    45    16    51 1   
    46    16    52 1   
    47    17    26 1   
    48    17    30 2   
    49    18    19 ar  
    50    18    26 1   
    51    19    20 ar  
    52    19    53 1   
    53    20    31 1   
    54    21    54 1   
    55    22    55 1   
    56    22    56 1   
    57    22    57 1   
    58    23    58 1   
    59    24    29 3   
    60    25    35 1   
    61    26    59 1   
    62    28    60 1   
    63    33    35 2   
    64    34    35 2   
@<TRIPOS>SUBSTRUCTURE
     1 OU6         1 TEMP              0 ****  ****    0 ROOT
