@<TRIPOS>MOLECULE
OU7
   47    50     1     0     0
SMALL
No Charge or Current Charge


@<TRIPOS>ATOM
      1 C10         12.2350     2.0280    23.9450 ca         1 OU7       0.324000
      2 C02         14.1830     1.0190    23.2930 ca         1 OU7       0.619900
      3 C05         12.3370     2.9810    22.8940 ca         1 OU7      -0.122000
      4 C06         11.3410     3.9720    22.7530 ca         1 OU7      -0.078000
      5 C07         10.2570     4.0200    23.6420 ca         1 OU7      -0.122000
      6 C09         11.1360     2.0970    24.8220 ca         1 OU7      -0.092000
      7 C21          8.9700     3.1380    25.6410 cp         1 OU7      -0.038000
      8 C23          7.3360     4.4260    26.9410 ca         1 OU7      -0.120000
      9 C24          6.7670     3.2410    27.4320 ca         1 OU7       0.089100
     10 C03         14.3830     1.8940    22.2270 ca         1 OU7      -0.214000
     11 C04         13.4420     2.9120    22.0090 ca         1 OU7       0.006700
     12 C08         10.1300     3.0840    24.6940 cp         1 OU7      -0.015000
     13 C22          8.4210     4.3770    26.0520 ca         1 OU7      -0.091000
     14 C25          7.2970     1.9870    27.0510 ca         1 OU7      -0.094300
     15 C26          8.3920     1.9520    26.1610 ca         1 OU7      -0.074000
     16 C27          6.7470     0.6730    27.6020 c3         1 OU7       0.202100
     17 C30          4.3620     3.1770    27.8050 c3         1 OU7       0.240900
     18 C32          3.4610     6.3870    25.7860 cc         1 OU7       0.410300
     19 C34          4.1920     4.3100    25.4930 cd         1 OU7       0.287900
     20 C35          4.0600     4.3100    26.8620 cc         1 OU7      -0.280300
     21 N01         13.1600     1.0580    24.1300 nb         1 OU7      -0.759000
     22 N02         15.0040     0.0120    23.5910 nv         1 OU7      -1.069900
     23 N28          6.2030    -0.1900    26.5330 n8         1 OU7      -0.999200
     24 N33          3.8450     5.5020    24.8720 nd         1 OU7      -0.633000
     25 O29          5.7040     3.3350    28.3000 os         1 OU7      -0.360100
     26 S31          3.4890     5.8480    27.4450 ss         1 OU7      -0.009400
     27 H1          11.3910     4.7110    21.9580 ha         1 OU7       0.110000
     28 H2           9.4980     4.7850    23.5020 ha         1 OU7       0.115000
     29 H3          11.0770     1.3740    25.6280 ha         1 OU7       0.135000
     30 H4          12.7990     3.8370    20.1480 hc         1 OU7       0.048367
     31 H5          13.7200     4.9170    21.2140 hc         1 OU7       0.048367
     32 H6          14.5510     3.6660    20.2860 hc         1 OU7       0.048367
     33 H7           6.9300     5.3870    27.2480 ha         1 OU7       0.124000
     34 H8          15.2530     1.7860    21.5870 ha         1 OU7       0.117000
     35 H9           8.8480     5.3100    25.6900 ha         1 OU7       0.118000
     36 H10          8.7890     0.9860    25.8610 ha         1 OU7       0.138000
     37 H11          5.9580     0.8560    28.3430 h1         1 OU7       0.039200
     38 H12          7.5570     0.1300    28.1090 h1         1 OU7       0.039200
     39 H13          3.6460     3.1950    28.6370 h1         1 OU7       0.061200
     40 H14          4.2460     2.2180    27.2830 h1         1 OU7       0.061200
     41 H16          4.5350     3.4750    24.8930 h4         1 OU7       0.043100
     42 H17         14.6080    -0.6710    24.2260 hn         1 OU7       0.477500
     43 H18         15.5890    -0.3510    22.8460 hn         1 OU7       0.477500
     44 H19          5.7860    -1.0250    26.9600 hn         1 OU7       0.396000
     45 H20          5.4070     0.2870    26.0960 hn         1 OU7       0.396000
     46 C11         13.6380     3.8860    20.8520 c3         1 OU7      -0.055800
     47 H15          3.1400     7.3970    25.5670 h5         1 OU7       0.052100
@<TRIPOS>BOND
     1     1     3 ar  
     2     1     6 ar  
     3     1    21 ar  
     4     2    10 ar  
     5     2    21 ar  
     6     2    22 1   
     7     3     4 ar  
     8     3    11 ar  
     9     4     5 ar  
    10     4    27 1   
    11     5    12 ar  
    12     5    28 1   
    13     6    12 ar  
    14     6    29 1   
    15     7    12 1   
    16     7    13 ar  
    17     7    15 ar  
    18     8     9 ar  
    19     8    13 ar  
    20     8    33 1   
    21     9    14 ar  
    22     9    25 1   
    23    10    11 ar  
    24    10    34 1   
    25    11    46 1   
    26    13    35 1   
    27    14    15 ar  
    28    14    16 1   
    29    15    36 1   
    30    16    23 1   
    31    16    37 1   
    32    16    38 1   
    33    17    20 1   
    34    17    25 1   
    35    17    39 1   
    36    17    40 1   
    37    18    24 2   
    38    18    26 1   
    39    18    47 1   
    40    19    20 2   
    41    19    24 1   
    42    19    41 1   
    43    20    26 1   
    44    22    42 1   
    45    22    43 1   
    46    23    44 1   
    47    23    45 1   
    48    30    46 1   
    49    31    46 1   
    50    32    46 1   
@<TRIPOS>SUBSTRUCTURE
     1 OU7         1 TEMP              0 ****  ****    0 ROOT
