@<TRIPOS>MOLECULE
OU7
   47    50     1     0     0
SMALL
abcg2


@<TRIPOS>ATOM
      1 C10         12.1410     2.0110    23.9640 ca         1 OU7       0.324000
      2 C02         14.0980     0.9790    23.3790 ca         1 OU7       0.619900
      3 C05         12.2430     2.9540    22.9130 ca         1 OU7      -0.122000
      4 C06         11.2350     3.9260    22.7730 ca         1 OU7      -0.078000
      5 C07         10.1670     3.9700    23.6310 ca         1 OU7      -0.122000
      6 C09         11.0320     2.0780    24.8320 ca         1 OU7      -0.092000
      7 C21          8.8900     3.0870    25.5950 cp         1 OU7      -0.038000
      8 C23          7.2440     4.3510    26.8250 ca         1 OU7      -0.120000
      9 C24          6.6810     3.1750    27.2990 ca         1 OU7       0.089100
     10 C03         14.2850     1.8780    22.2850 ca         1 OU7      -0.214000
     11 C04         13.3730     2.8580    22.0420 ca         1 OU7       0.006700
     12 C08         10.0500     3.0340    24.6830 cp         1 OU7      -0.015000
     13 C22          8.3390     4.3080    25.9770 ca         1 OU7      -0.091000
     14 C25          7.2180     1.9340    26.9430 ca         1 OU7      -0.094300
     15 C26          8.3210     1.9160    26.0990 ca         1 OU7      -0.074000
     16 C27          6.6210     0.6610    27.4950 c3         1 OU7       0.202100
     17 C30          4.3350     3.2250    27.5380 c3         1 OU7       0.240900
     18 C32          3.6280     6.7770    26.1280 cc         1 OU7       0.410300
     19 C34          3.9270     4.7090    25.4890 cd         1 OU7       0.287900
     20 C35          4.0380     4.4990    26.8280 cc         1 OU7      -0.280300
     21 N01         13.0630     1.0430    24.1820 nb         1 OU7      -0.759000
     22 N02         15.0440     0.0370    23.6210 nv         1 OU7      -1.069900
     23 N28          7.2410    -0.5300    26.9470 n8         1 OU7      -0.999200
     24 N33          3.6900     5.9950    25.1000 nd         1 OU7      -0.633000
     25 O29          5.6180     3.2260    28.1590 os         1 OU7      -0.360100
     26 S31          3.8430     6.0010    27.6450 ss         1 OU7      -0.009400
     27 H1          11.2930     4.6490    21.9690 ha         1 OU7       0.110000
     28 H2           9.3960     4.7150    23.4830 ha         1 OU7       0.115000
     29 H3          10.9840     1.3600    25.6420 ha         1 OU7       0.135000
     30 H4          12.6930     3.7630    20.2190 hc         1 OU7       0.048367
     31 H5          13.6230     4.8370    21.2480 hc         1 OU7       0.048367
     32 H6          14.4430     3.5770    20.3280 hc         1 OU7       0.048367
     33 H7           6.8390     5.3050    27.1360 ha         1 OU7       0.124000
     34 H8          15.1580     1.7710    21.6520 ha         1 OU7       0.117000
     35 H9           8.7740     5.2380    25.6340 ha         1 OU7       0.118000
     36 H10          8.7330     0.9570    25.8170 ha         1 OU7       0.138000
     37 H11          5.5330     0.6810    27.3520 h1         1 OU7       0.039200
     38 H12          6.7720     0.6530    28.5780 h1         1 OU7       0.039200
     39 H13          3.6190     3.0460    28.3410 h1         1 OU7       0.061200
     40 H14          4.2420     2.4020    26.8220 h1         1 OU7       0.061200
     41 H16          4.0160     3.9290    24.7450 h4         1 OU7       0.043100
     42 H17         14.8020    -0.7150    24.2440 hn         1 OU7       0.477500
     43 H18         15.6890    -0.2030    22.8880 hn         1 OU7       0.477500
     44 H19          6.9270    -1.3330    27.4740 hn         1 OU7       0.396000
     45 H20          6.9190    -0.6790    25.9990 hn         1 OU7       0.396000
     46 C11         13.5450     3.8070    20.8980 c3         1 OU7      -0.055800
     47 H15          3.4540     7.8430    26.0690 h5         1 OU7       0.052100
@<TRIPOS>BOND
     1     1     3 ar  
     2     1     6 ar  
     3     1    21 ar  
     4     2    10 ar  
     5     2    21 ar  
     6     2    22 1   
     7     3     4 ar  
     8     3    11 ar  
     9     4     5 ar  
    10     4    27 1   
    11     5    12 ar  
    12     5    28 1   
    13     6    12 ar  
    14     6    29 1   
    15     7    12 1   
    16     7    13 ar  
    17     7    15 ar  
    18     8     9 ar  
    19     8    13 ar  
    20     8    33 1   
    21     9    14 ar  
    22     9    25 1   
    23    10    11 ar  
    24    10    34 1   
    25    11    46 1   
    26    13    35 1   
    27    14    15 ar  
    28    14    16 1   
    29    15    36 1   
    30    16    23 1   
    31    16    37 1   
    32    16    38 1   
    33    17    20 1   
    34    17    25 1   
    35    17    39 1   
    36    17    40 1   
    37    18    24 2   
    38    18    26 1   
    39    18    47 1   
    40    19    20 2   
    41    19    24 1   
    42    19    41 1   
    43    20    26 1   
    44    22    42 1   
    45    22    43 1   
    46    23    44 1   
    47    23    45 1   
    48    30    46 1   
    49    31    46 1   
    50    32    46 1   
@<TRIPOS>SUBSTRUCTURE
     1 OU7         1 TEMP              0 ****  ****    0 ROOT
