@<TRIPOS>MOLECULE
OU9
   77    76     1     0     0
SMALL
abcg2


@<TRIPOS>ATOM
      1 C1         100.3640    95.2540    73.5520 c3         1 OU9       0.217600
      2 C2         100.6990    96.6100    74.1840 c3         1 OU9       0.132300
      3 C3         102.1810    96.8790    74.3190 c3         1 OU9       0.169600
      4 C11         98.0970    96.3500    70.9410 c3         1 OU9       0.236600
      5 O12        100.8440    97.2390    71.0910 o          1 OU9      -0.817500
      6 N           96.5720    95.2510    69.3510 n8         1 OU9      -0.965200
      7 C12         96.7390    95.7190    70.7180 c3         1 OU9       0.141800
      8 C22         98.5100    96.9630    77.1510 c3         1 OU9      -0.138400
      9 C23         99.1010    98.1530    77.9170 c3         1 OU9      -0.066400
     10 C24         98.5160    99.4980    77.5040 c3         1 OU9      -0.080400
     11 C25         99.0350   100.6480    78.3580 c3         1 OU9      -0.074400
     12 C26         98.3190   101.9660    78.0900 c3         1 OU9      -0.075400
     13 C27         98.8470   103.1060    78.9510 c3         1 OU9      -0.068400
     14 C28         98.1370   104.4450    78.7280 c3         1 OU9      -0.043200
     15 C29         96.6760   104.4020    79.0640 c2         1 OU9      -0.207200
     16 C2A         96.1060   104.8120    80.1980 c2         1 OU9      -0.226200
     17 C2B         96.7940   105.4330    81.3750 c3         1 OU9      -0.040200
     18 C2C         96.4800   106.9230    81.5490 c3         1 OU9      -0.070400
     19 C2D         95.0130   107.2240    81.8370 c3         1 OU9      -0.076400
     20 C2E         94.7600   108.7070    82.0830 c3         1 OU9      -0.074400
     21 C2F         93.3240   109.0500    82.4680 c3         1 OU9      -0.072400
     22 C2G         92.3020   108.7810    81.3680 c3         1 OU9      -0.075400
     23 C2H         90.8700   109.1560    81.7450 c3         1 OU9      -0.074400
     24 C2I         90.6520   110.6500    81.9510 c3         1 OU9      -0.089100
     25 O11        101.0630    94.9980    72.3590 os         1 OU9      -0.578400
     26 O13         99.1130    95.3760    70.7690 os         1 OU9      -0.599400
     27 O14        101.4640    94.9870    69.9100 o          1 OU9      -0.817500
     28 O21        100.1390    96.6150    75.5080 os         1 OU9      -0.450100
     29 O22         98.1330    97.3210    74.8010 o          1 OU9      -0.494000
     30 O31        102.8030    95.8240    75.0110 oh         1 OU9      -0.653000
     31 P          100.7010    95.7550    70.9380 p5         1 OU9       1.393800
     32 H1          99.2810    95.1850    73.4030 h1         1 OU9       0.030700
     33 H2         100.6360    94.4640    74.2550 h1         1 OU9       0.030700
     34 H3         100.2710    97.4240    73.5970 h1         1 OU9       0.097700
     35 H4         102.5820    97.0080    73.3090 h1         1 OU9       0.036700
     36 H5         102.3120    97.8410    74.8340 h1         1 OU9       0.036700
     37 H6          98.2300    97.1820    70.2410 h1         1 OU9       0.019200
     38 H7          98.1180    96.7740    71.9500 h1         1 OU9       0.019200
     39 H9          95.6630    94.8170    69.2540 hn         1 OU9       0.371500
     40 H10         96.5620    96.0480    68.7260 hn         1 OU9       0.371500
     41 H12         95.9920    96.4650    71.0260 h1         1 OU9       0.015700
     42 H13         96.6210    94.8710    71.3980 h1         1 OU9       0.015700
     43 H14         97.4230    96.9770    77.2330 hc         1 OU9       0.064200
     44 H15         98.8670    96.0320    77.5960 hc         1 OU9       0.064200
     45 H16        100.1890    98.1620    77.8090 hc         1 OU9       0.043700
     46 H17         98.9020    97.9920    78.9790 hc         1 OU9       0.043700
     47 H18         98.7320    99.7040    76.4510 hc         1 OU9       0.047700
     48 H19         97.4250    99.4490    77.5870 hc         1 OU9       0.047700
     49 H20         98.9200   100.3910    79.4170 hc         1 OU9       0.033700
     50 H21        100.1110   100.7720    78.1920 hc         1 OU9       0.033700
     51 H22         98.4190   102.2340    77.0320 hc         1 OU9       0.041200
     52 H23         97.2480   101.8280    78.2690 hc         1 OU9       0.041200
     53 H24         98.7620   102.8330    80.0080 hc         1 OU9       0.036700
     54 H25         99.9160   103.2380    78.7540 hc         1 OU9       0.036700
     55 H26         98.6430   105.2140    79.3150 hc         1 OU9       0.042200
     56 H27         98.2530   104.7390    77.6790 hc         1 OU9       0.042200
     57 H28         96.0260   103.9700    78.3080 ha         1 OU9       0.169000
     58 H29         95.0300   104.6960    80.2860 ha         1 OU9       0.163000
     59 H30         96.4860   104.9050    82.2840 hc         1 OU9       0.042700
     60 H31         97.8750   105.3050    81.3030 hc         1 OU9       0.042700
     61 H32         97.0910   107.3120    82.3700 hc         1 OU9       0.036700
     62 H33         96.7950   107.4630    80.6500 hc         1 OU9       0.036700
     63 H34         94.3960   106.8730    81.0060 hc         1 OU9       0.038700
     64 H35         95.4290   109.0500    82.8800 hc         1 OU9       0.035700
     65 H36         93.0430   108.4890    83.3660 hc         1 OU9       0.035700
     66 H37         93.2860   110.1060    82.7500 hc         1 OU9       0.035700
     67 H38         92.5920   109.3280    80.4630 hc         1 OU9       0.038700
     68 H39         92.3240   107.7210    81.1000 hc         1 OU9       0.038700
     69 H40         90.1960   108.8050    80.9600 hc         1 OU9       0.035700
     70 H41         90.5830   108.6140    82.6520 hc         1 OU9       0.035700
     71 H42         89.6030   110.8710    82.1480 hc         1 OU9       0.029700
     72 H43         91.2280   111.0370    82.7930 hc         1 OU9       0.029700
     73 H44         90.9480   111.2130    81.0640 hc         1 OU9       0.029700
     74 H45        103.7520    95.9770    75.0010 ho         1 OU9       0.428000
     75 H11         94.6930   106.6530    82.7170 hc         1 OU9       0.038700
     76 H46         95.0410   109.2760    81.1900 hc         1 OU9       0.035700
     77 C21         98.8750    96.9870    75.6910 c          1 OU9       0.593100
@<TRIPOS>BOND
     1     1     2 1   
     2     1    25 1   
     3     1    32 1   
     4     1    33 1   
     5     2     3 1   
     6     2    28 1   
     7     2    34 1   
     8     3    30 1   
     9     3    35 1   
    10     3    36 1   
    11     4     7 1   
    12     4    26 1   
    13     4    37 1   
    14     4    38 1   
    15     5    31 1   
    16     6     7 1   
    17     6    39 1   
    18     6    40 1   
    19     7    41 1   
    20     7    42 1   
    21     8     9 1   
    22     8    43 1   
    23     8    44 1   
    24     8    77 1   
    25     9    10 1   
    26     9    45 1   
    27     9    46 1   
    28    10    11 1   
    29    10    47 1   
    30    10    48 1   
    31    11    12 1   
    32    11    49 1   
    33    11    50 1   
    34    12    13 1   
    35    12    51 1   
    36    12    52 1   
    37    13    14 1   
    38    13    53 1   
    39    13    54 1   
    40    14    15 1   
    41    14    55 1   
    42    14    56 1   
    43    15    16 2   
    44    15    57 1   
    45    16    17 1   
    46    16    58 1   
    47    17    18 1   
    48    17    59 1   
    49    17    60 1   
    50    18    19 1   
    51    18    61 1   
    52    18    62 1   
    53    19    20 1   
    54    19    63 1   
    55    19    75 1   
    56    20    21 1   
    57    20    64 1   
    58    20    76 1   
    59    21    22 1   
    60    21    65 1   
    61    21    66 1   
    62    22    23 1   
    63    22    67 1   
    64    22    68 1   
    65    23    24 1   
    66    23    69 1   
    67    23    70 1   
    68    24    71 1   
    69    24    72 1   
    70    24    73 1   
    71    25    31 1   
    72    26    31 1   
    73    27    31 1   
    74    28    77 1   
    75    29    77 2   
    76    30    74 1   
@<TRIPOS>SUBSTRUCTURE
     1 OU9         1 TEMP              0 ****  ****    0 ROOT
