@<TRIPOS>MOLECULE
OU9
   77    76     1     0     0
SMALL
No Charge or Current Charge


@<TRIPOS>ATOM
      1 C1         100.1260    95.8380    72.9710 c3         1 OU9       0.217600
      2 C2         100.8720    96.8820    73.8630 c3         1 OU9       0.132300
      3 C3         102.4190    96.7120    73.8450 c3         1 OU9       0.169600
      4 C11         97.6830    96.2400    70.4650 c3         1 OU9       0.236600
      5 O12         99.8680    98.3050    71.2090 o          1 OU9      -0.817500
      6 N           97.2370    93.7850    69.8460 n8         1 OU9      -0.965200
      7 C12         97.4220    94.7730    70.9430 c3         1 OU9       0.141800
      8 C22         98.8820    96.9080    77.0730 c3         1 OU9      -0.138400
      9 C23         99.3060    98.0940    77.9760 c3         1 OU9      -0.066400
     10 C24         98.5010    99.3930    77.7370 c3         1 OU9      -0.080400
     11 C25         98.9060   100.5350    78.6940 c3         1 OU9      -0.074400
     12 C26         98.1040   101.8340    78.4570 c3         1 OU9      -0.075400
     13 C27         98.5090   102.9770    79.4170 c3         1 OU9      -0.068400
     14 C28         97.7500   104.2990    79.1720 c3         1 OU9      -0.043200
     15 C29         96.2570   104.1830    79.4220 c2         1 OU9      -0.207200
     16 C2A         95.6040   104.4820    80.5590 c2         1 OU9      -0.226200
     17 C2B         96.2190   104.9660    81.8610 c3         1 OU9      -0.040200
     18 C2C         96.2180   106.5050    81.9950 c3         1 OU9      -0.070400
     19 C2D         94.8050   107.1300    82.0490 c3         1 OU9      -0.076400
     20 C2E         94.8340   108.6670    82.2230 c3         1 OU9      -0.074400
     21 C2F         93.4400   109.3250    82.3720 c3         1 OU9      -0.072400
     22 C2G         92.5500   109.2370    81.1070 c3         1 OU9      -0.075400
     23 C2H         91.1630   109.9060    81.2550 c3         1 OU9      -0.074400
     24 C2I         91.2050   111.4380    81.4320 c3         1 OU9      -0.089100
     25 O11        100.6150    95.8570    71.6150 os         1 OU9      -0.578400
     26 O13         98.9670    96.3330    69.8240 os         1 OU9      -0.599400
     27 O14        101.3470    97.1990    69.5830 o          1 OU9      -0.817500
     28 O21        100.4290    96.7420    75.2390 os         1 OU9      -0.450100
     29 O22         98.3800    97.7020    74.8270 o          1 OU9      -0.494000
     30 O31        102.8340    95.4320    74.3630 oh         1 OU9      -0.653000
     31 P          100.2320    97.0150    70.5570 p5         1 OU9       1.393800
     32 H1          99.0500    96.0480    72.9900 h1         1 OU9       0.030700
     33 H2         100.2680    94.8370    73.4000 h1         1 OU9       0.030700
     34 H3         100.6510    97.8940    73.5040 h1         1 OU9       0.097700
     35 H4         102.7810    96.8400    72.8160 h1         1 OU9       0.036700
     36 H5         102.8620    97.5200    74.4430 h1         1 OU9       0.036700
     37 H6          96.8880    96.5430    69.7700 h1         1 OU9       0.019200
     38 H7          97.6260    96.9070    71.3350 h1         1 OU9       0.019200
     39 H9          96.9660    92.8810    70.2510 hn         1 OU9       0.371500
     40 H10         96.4250    94.0570    69.2810 hn         1 OU9       0.371500
     41 H12         96.5080    94.7660    71.5530 h1         1 OU9       0.015700
     42 H13         98.2480    94.4280    71.5770 h1         1 OU9       0.015700
     43 H14         97.8130    96.7130    77.2090 hc         1 OU9       0.064200
     44 H15         99.4740    96.0450    77.3980 hc         1 OU9       0.064200
     45 H16        100.3750    98.2960    77.8270 hc         1 OU9       0.043700
     46 H17         99.1870    97.7920    79.0240 hc         1 OU9       0.043700
     47 H18         98.6450    99.7290    76.7030 hc         1 OU9       0.047700
     48 H19         97.4310    99.1820    77.8600 hc         1 OU9       0.047700
     49 H20         98.7590   100.2070    79.7300 hc         1 OU9       0.033700
     50 H21         99.9760   100.7450    78.5720 hc         1 OU9       0.033700
     51 H22         98.2510   102.1650    77.4210 hc         1 OU9       0.041200
     52 H23         97.0350   101.6190    78.5760 hc         1 OU9       0.041200
     53 H24         98.3450   102.6560    80.4540 hc         1 OU9       0.036700
     54 H25         99.5840   103.1670    79.3110 hc         1 OU9       0.036700
     55 H26         98.1860   105.0720    79.8170 hc         1 OU9       0.042200
     56 H27         97.9310   104.6370    78.1440 hc         1 OU9       0.042200
     57 H28         95.6920   103.8350    78.5550 ha         1 OU9       0.169000
     58 H29         94.5200   104.3620    80.6040 ha         1 OU9       0.163000
     59 H30         95.6820   104.5280    82.7120 hc         1 OU9       0.042700
     60 H31         97.2530   104.6120    81.9500 hc         1 OU9       0.042700
     61 H32         96.7630   106.7750    82.9090 hc         1 OU9       0.036700
     62 H33         96.7760   106.9380    81.1560 hc         1 OU9       0.036700
     63 H34         94.2700   106.8780    81.1260 hc         1 OU9       0.038700
     64 H35         95.4230   108.9080    83.1160 hc         1 OU9       0.035700
     65 H36         92.9150   108.8680    83.2200 hc         1 OU9       0.035700
     66 H37         93.5940   110.3790    82.6310 hc         1 OU9       0.035700
     67 H38         93.0790   109.6880    80.2570 hc         1 OU9       0.038700
     68 H39         92.3880   108.1830    80.8520 hc         1 OU9       0.038700
     69 H40         90.5700   109.6770    80.3610 hc         1 OU9       0.035700
     70 H41         90.6310   109.4580    82.1040 hc         1 OU9       0.035700
     71 H42         90.1880   111.8470    81.4380 hc         1 OU9       0.029700
     72 H43         91.6840   111.7150    82.3780 hc         1 OU9       0.029700
     73 H44         91.7580   111.9090    80.6100 hc         1 OU9       0.029700
     74 H45        103.8150    95.4200    74.3440 ho         1 OU9       0.428000
     75 H11         94.2450   106.6830    82.8800 hc         1 OU9       0.038700
     76 H46         95.3570   109.1200    81.3720 hc         1 OU9       0.035700
     77 C21         99.1720    97.1670    75.5900 c          1 OU9       0.593100
@<TRIPOS>BOND
     1     1     2 1   
     2     1    25 1   
     3     1    32 1   
     4     1    33 1   
     5     2     3 1   
     6     2    28 1   
     7     2    34 1   
     8     3    30 1   
     9     3    35 1   
    10     3    36 1   
    11     4     7 1   
    12     4    26 1   
    13     4    37 1   
    14     4    38 1   
    15     5    31 1   
    16     6     7 1   
    17     6    39 1   
    18     6    40 1   
    19     7    41 1   
    20     7    42 1   
    21     8     9 1   
    22     8    43 1   
    23     8    44 1   
    24     8    77 1   
    25     9    10 1   
    26     9    45 1   
    27     9    46 1   
    28    10    11 1   
    29    10    47 1   
    30    10    48 1   
    31    11    12 1   
    32    11    49 1   
    33    11    50 1   
    34    12    13 1   
    35    12    51 1   
    36    12    52 1   
    37    13    14 1   
    38    13    53 1   
    39    13    54 1   
    40    14    15 1   
    41    14    55 1   
    42    14    56 1   
    43    15    16 2   
    44    15    57 1   
    45    16    17 1   
    46    16    58 1   
    47    17    18 1   
    48    17    59 1   
    49    17    60 1   
    50    18    19 1   
    51    18    61 1   
    52    18    62 1   
    53    19    20 1   
    54    19    63 1   
    55    19    75 1   
    56    20    21 1   
    57    20    64 1   
    58    20    76 1   
    59    21    22 1   
    60    21    65 1   
    61    21    66 1   
    62    22    23 1   
    63    22    67 1   
    64    22    68 1   
    65    23    24 1   
    66    23    69 1   
    67    23    70 1   
    68    24    71 1   
    69    24    72 1   
    70    24    73 1   
    71    25    31 1   
    72    26    31 1   
    73    27    31 1   
    74    28    77 1   
    75    29    77 2   
    76    30    74 1   
@<TRIPOS>SUBSTRUCTURE
     1 OU9         1 TEMP              0 ****  ****    0 ROOT
