@<TRIPOS>MOLECULE
OUA
   36    38     1     0     0
SMALL
No Charge or Current Charge


@<TRIPOS>ATOM
      1 C11        115.2070   246.4470   361.5190 c3         1 OUA      -0.056800
      2 C23        123.3880   247.1800   357.6940 ca         1 OUA      -0.141300
      3 N28        124.6570   245.6150   356.2780 n8         1 OUA      -0.999200
      4 C27        124.6350   246.3270   357.5660 c3         1 OUA       0.202100
      5 C22        123.3940   248.5140   357.2460 ca         1 OUA       0.360900
      6 C24        122.2130   246.6670   358.2730 ca         1 OUA      -0.067000
      7 C25        121.0720   247.4990   358.3880 cp         1 OUA      -0.090000
      8 C26        121.1940   248.8280   357.9030 ca         1 OUA       0.346900
      9 N21        122.3200   249.3320   357.3450 nb         1 OUA      -0.671000
     10 C08        119.7950   247.0040   358.9960 cp         1 OUA      -0.010000
     11 C09        119.3910   245.6530   358.8580 ca         1 OUA      -0.096000
     12 C07        118.9490   247.8700   359.7270 ca         1 OUA      -0.122000
     13 C06        117.7530   247.4080   360.2970 ca         1 OUA      -0.074000
     14 C05        117.3650   246.0580   360.1500 ca         1 OUA      -0.123000
     15 C04        116.1620   245.5690   360.7170 ca         1 OUA       0.008700
     16 C03        115.8580   244.2130   360.5180 ca         1 OUA      -0.214000
     17 C02        116.7450   243.4340   359.7790 ca         1 OUA       0.622900
     18 N02        116.5660   242.1360   359.5320 nv         1 OUA      -1.070900
     19 N01        117.8750   243.8630   359.2430 nb         1 OUA      -0.764000
     20 C10        118.1970   245.1660   359.4190 ca         1 OUA       0.326000
     21 H1         114.8330   247.2790   360.9120 hc         1 OUA       0.049367
     22 H2         114.3360   245.8820   361.8720 hc         1 OUA       0.049367
     23 H3         115.7040   246.8650   362.4030 hc         1 OUA       0.049367
     24 H4         125.4710   244.9890   356.2580 hn         1 OUA       0.398500
     25 H5         123.8570   244.9730   356.2430 hn         1 OUA       0.398500
     26 H7         124.6690   245.5910   358.3820 h1         1 OUA       0.037200
     27 H8         125.5320   246.9590   357.6390 h1         1 OUA       0.037200
     28 H9         124.2880   248.9440   356.7950 h4         1 OUA       0.037100
     29 H10        122.1920   245.6440   358.6410 ha         1 OUA       0.119000
     30 H11        120.3500   249.5140   357.9520 h4         1 OUA       0.020100
     31 H12        120.0090   244.9650   358.2900 ha         1 OUA       0.129000
     32 H13        119.2260   248.9110   359.8690 ha         1 OUA       0.117000
     33 H14        117.1400   248.1130   360.8530 ha         1 OUA       0.112000
     34 H15        114.9520   243.7750   360.9240 ha         1 OUA       0.118000
     35 H16        117.3970   241.6610   359.2010 hn         1 OUA       0.479000
     36 H17        115.9750   241.6160   360.1710 hn         1 OUA       0.479000
@<TRIPOS>BOND
     1     1    15 1   
     2     1    21 1   
     3     1    22 1   
     4     1    23 1   
     5     2     4 1   
     6     2     5 ar  
     7     2     6 ar  
     8     3     4 1   
     9     3    24 1   
    10     3    25 1   
    11     4    26 1   
    12     4    27 1   
    13     5     9 ar  
    14     5    28 1   
    15     6     7 ar  
    16     6    29 1   
    17     7     8 ar  
    18     7    10 1   
    19     8     9 ar  
    20     8    30 1   
    21    10    11 ar  
    22    10    12 ar  
    23    11    20 ar  
    24    11    31 1   
    25    12    13 ar  
    26    12    32 1   
    27    13    14 ar  
    28    13    33 1   
    29    14    15 ar  
    30    14    20 ar  
    31    15    16 ar  
    32    16    17 ar  
    33    16    34 1   
    34    17    18 1   
    35    17    19 ar  
    36    18    35 1   
    37    18    36 1   
    38    19    20 ar  
@<TRIPOS>SUBSTRUCTURE
     1 OUA         1 TEMP              0 ****  ****    0 ROOT
