@<TRIPOS>MOLECULE
OUA
   36    38     1     0     0
SMALL
bcc


@<TRIPOS>ATOM
      1 C11        115.2820   246.4960   361.5750 c3         1 OUA      -0.056800
      2 C23        123.3010   247.0210   357.6620 ca         1 OUA      -0.206600
      3 N28        125.2740   246.3510   356.3770 n8         1 OUA      -0.888800
      4 C27        124.5450   246.1730   357.6190 c3         1 OUA       0.202100
      5 C22        123.2710   248.3010   357.1150 ca         1 OUA       0.426200
      6 C24        122.1440   246.5670   358.2750 ca         1 OUA      -0.085000
      7 C25        121.0130   247.3790   358.3350 cp         1 OUA      -0.155300
      8 C26        121.1110   248.6420   357.7530 ca         1 OUA       0.412200
      9 N21        122.2070   249.0920   357.1590 nb         1 OUA      -0.671000
     10 C08        119.7620   246.9250   358.9680 cp         1 OUA      -0.010000
     11 C09        119.3570   245.6120   358.8610 ca         1 OUA      -0.179300
     12 C07        118.9590   247.8330   359.6930 ca         1 OUA      -0.140000
     13 C06        117.7960   247.4130   360.2840 ca         1 OUA      -0.092000
     14 C05        117.3700   246.0760   360.1830 ca         1 OUA      -0.188300
     15 C04        116.1650   245.5880   360.7800 ca         1 OUA       0.008700
     16 C03        115.8530   244.2750   360.6060 ca         1 OUA      -0.297300
     17 C02        116.7200   243.4250   359.8520 ca         1 OUA       0.688200
     18 N02        116.3660   242.1310   359.6630 nv         1 OUA      -0.960500
     19 N01        117.8330   243.8520   359.3040 nb         1 OUA      -0.764000
     20 C10        118.1640   245.1560   359.4580 ca         1 OUA       0.456600
     21 H1         114.9370   247.3400   360.9750 hc         1 OUA       0.049367
     22 H2         114.4070   245.9670   361.9460 hc         1 OUA       0.049367
     23 H3         115.8160   246.9100   362.4320 hc         1 OUA       0.049367
     24 H4         126.1560   245.8570   356.4340 hn         1 OUA       0.343300
     25 H5         124.7610   245.9190   355.6190 hn         1 OUA       0.343300
     26 H7         124.2650   245.1330   357.8310 h1         1 OUA       0.037200
     27 H8         125.2010   246.4790   358.4400 h1         1 OUA       0.037200
     28 H9         124.1500   248.6940   356.6170 h4         1 OUA       0.037100
     29 H10        122.1250   245.5790   358.7220 ha         1 OUA       0.137000
     30 H11        120.2550   249.3090   357.7520 h4         1 OUA       0.020100
     31 H12        119.9380   244.8990   358.2890 ha         1 OUA       0.147000
     32 H13        119.2720   248.8630   359.8050 ha         1 OUA       0.135000
     33 H14        117.2040   248.1250   360.8450 ha         1 OUA       0.130000
     34 H15        114.9500   243.8620   361.0380 ha         1 OUA       0.136000
     35 H16        117.0720   241.4970   359.3270 hn         1 OUA       0.423800
     36 H17        115.6680   241.7230   360.2620 hn         1 OUA       0.423800
@<TRIPOS>BOND
     1     1    15 1   
     2     1    21 1   
     3     1    22 1   
     4     1    23 1   
     5     2     4 1   
     6     2     5 ar  
     7     2     6 ar  
     8     3     4 1   
     9     3    24 1   
    10     3    25 1   
    11     4    26 1   
    12     4    27 1   
    13     5     9 ar  
    14     5    28 1   
    15     6     7 ar  
    16     6    29 1   
    17     7     8 ar  
    18     7    10 1   
    19     8     9 ar  
    20     8    30 1   
    21    10    11 ar  
    22    10    12 ar  
    23    11    20 ar  
    24    11    31 1   
    25    12    13 ar  
    26    12    32 1   
    27    13    14 ar  
    28    13    33 1   
    29    14    15 ar  
    30    14    20 ar  
    31    15    16 ar  
    32    16    17 ar  
    33    16    34 1   
    34    17    18 1   
    35    17    19 ar  
    36    18    35 1   
    37    18    36 1   
    38    19    20 ar  
@<TRIPOS>SUBSTRUCTURE
     1 OUA         1 TEMP              0 ****  ****    0 ROOT
