@<TRIPOS>MOLECULE
OUB
   25    26     1     0     0
SMALL
No Charge or Current Charge


@<TRIPOS>ATOM
      1 C2         -23.0050    15.1310   -22.4470 c          1 OUB       0.618000
      2 C4         -20.9730    13.7890   -22.4780 cc         1 OUB       0.037600
      3 N1         -22.9170    15.1130   -21.0790 ns         1 OUB      -0.482500
      4 C6         -19.8640    13.1330   -20.6850 cd         1 OUB       0.205900
      5 C5         -20.9650    13.8310   -21.0920 cc         1 OUB      -0.296600
      6 C1         -21.9740    14.5160   -20.2980 c          1 OUB       0.633600
      7 C3         -19.8790    13.0730   -22.8760 cd         1 OUB       0.086900
      8 C8         -22.8560    13.2940   -25.2850 c3         1 OUB      -0.007500
      9 C9         -23.0490    13.5410   -26.8370 c          1 OUB       0.726000
     10 N2         -22.0000    14.4310   -23.1630 n          1 OUB      -0.274000
     11 N4         -22.3310    11.9280   -24.8850 n8         1 OUB      -1.013200
     12 O1         -21.9970    14.5690   -19.0800 o          1 OUB      -0.559000
     13 O2         -23.9200    15.7260   -22.9920 o          1 OUB      -0.554000
     14 O3         -24.0610    13.0970   -27.3640 o          1 OUB      -0.721000
     15 O4         -22.1960    14.1680   -27.4540 o          1 OUB      -0.721000
     16 O5         -19.1620    12.6450   -21.7740 os         1 OUB      -0.228000
     17 H1         -23.6420    15.6100   -20.5880 hn         1 OUB       0.328500
     18 H2         -19.4780    12.9180   -19.6970 h4         1 OUB       0.057100
     19 H3         -19.5140    12.8060   -23.8590 h4         1 OUB       0.085100
     20 H4         -21.0030    14.4100   -25.0250 h1         1 OUB       0.070200
     21 H5         -22.4470    15.4120   -24.9850 h1         1 OUB       0.070200
     22 H6         -23.8640    13.3640   -24.8540 h1         1 OUB       0.024700
     23 H7         -22.3510    11.8440   -23.8610 hn         1 OUB       0.389500
     24 H8         -22.9900    11.2060   -25.2040 hn         1 OUB       0.389500
     25 C7         -22.0330    14.4530   -24.6480 c3         1 OUB       0.135000
@<TRIPOS>BOND
     1     1     3 1   
     2     1    10 1   
     3     1    13 2   
     4     2     5 1   
     5     2     7 2   
     6     2    10 1   
     7     3     6 1   
     8     3    17 1   
     9     4     5 2   
    10     4    16 1   
    11     4    18 1   
    12     5     6 1   
    13     6    12 2   
    14     7    16 1   
    15     7    19 1   
    16     8     9 1   
    17     8    11 1   
    18     8    22 1   
    19     8    25 1   
    20     9    14 1   
    21     9    15 1   
    22    10    25 1   
    23    11    23 1   
    24    11    24 1   
    25    20    25 1   
    26    21    25 1   
@<TRIPOS>SUBSTRUCTURE
     1 OUB         1 TEMP              0 ****  ****    0 ROOT
