@<TRIPOS>MOLECULE
OUB
   25    26     1     0     0
SMALL
abcg2


@<TRIPOS>ATOM
      1 C2         -22.9630    15.0930   -22.4740 c          1 OUB       0.618000
      2 C4         -20.9880    13.7760   -22.4810 cc         1 OUB       0.037600
      3 N1         -22.8570    15.1030   -21.0870 ns         1 OUB      -0.482500
      4 C6         -19.7870    13.1340   -20.7150 cd         1 OUB       0.205900
      5 C5         -20.8980    13.8360   -21.0610 cc         1 OUB      -0.296600
      6 C1         -21.8910    14.5410   -20.2810 c          1 OUB       0.633600
      7 C3         -19.9300    13.0370   -22.8990 cd         1 OUB       0.086900
      8 C8         -22.9490    13.3730   -25.2220 c3         1 OUB      -0.007500
      9 C9         -22.9610    13.4730   -26.7720 c          1 OUB       0.726000
     10 N2         -22.0000    14.4160   -23.1640 n          1 OUB      -0.274000
     11 N4         -22.5440    12.0490   -24.7840 n8         1 OUB      -1.013200
     12 O1         -21.9150    14.6460   -19.0730 o          1 OUB      -0.559000
     13 O2         -23.8820    15.6740   -23.0150 o          1 OUB      -0.554000
     14 O3         -23.1000    12.4040   -27.3960 o          1 OUB      -0.721000
     15 O4         -22.8750    14.6190   -27.2520 o          1 OUB      -0.721000
     16 O5         -19.2060    12.6580   -21.8100 os         1 OUB      -0.228000
     17 H1         -23.5960    15.6150   -20.6200 hn         1 OUB       0.328500
     18 H2         -19.3290    12.9100   -19.7650 h4         1 OUB       0.057100
     19 H3         -19.5880    12.6950   -23.8600 h4         1 OUB       0.085100
     20 H4         -21.0050    14.2720   -24.9680 h1         1 OUB       0.070200
     21 H5         -22.3280    15.4230   -24.9530 h1         1 OUB       0.070200
     22 H6         -23.9770    13.6170   -24.9060 h1         1 OUB       0.024700
     23 H7         -22.9490    11.8360   -23.8820 hn         1 OUB       0.389500
     24 H8         -22.9230    11.3790   -25.4420 hn         1 OUB       0.389500
     25 C7         -22.0290    14.4310   -24.6280 c3         1 OUB       0.135000
@<TRIPOS>BOND
     1     1     3 1   
     2     1    10 1   
     3     1    13 2   
     4     2     5 1   
     5     2     7 2   
     6     2    10 1   
     7     3     6 1   
     8     3    17 1   
     9     4     5 2   
    10     4    16 1   
    11     4    18 1   
    12     5     6 1   
    13     6    12 2   
    14     7    16 1   
    15     7    19 1   
    16     8     9 1   
    17     8    11 1   
    18     8    22 1   
    19     8    25 1   
    20     9    14 1   
    21     9    15 1   
    22    10    25 1   
    23    11    23 1   
    24    11    24 1   
    25    20    25 1   
    26    21    25 1   
@<TRIPOS>SUBSTRUCTURE
     1 OUB         1 TEMP              0 ****  ****    0 ROOT
