@<TRIPOS>MOLECULE
OUC
   48    50     1     0     0
SMALL
bcc


@<TRIPOS>ATOM
      1 C01         -9.8120    14.4000     3.1100 c3         1 OUC      -0.057800
      2 C02        -10.7600    15.4820     3.5530 ca         1 OUC      -0.026300
      3 C03        -12.0560    15.1220     3.8980 ca         1 OUC      -0.200500
      4 C04        -12.9850    16.0870     4.2680 ca         1 OUC       0.148100
      5 C06        -12.6110    17.4220     4.2760 ca         1 OUC      -0.200500
      6 C07        -11.3130    17.8030     3.9450 ca         1 OUC      -0.026300
      7 C08        -10.9920    19.2720     3.9900 c3         1 OUC      -0.057800
      8 C09        -10.3670    16.8310     3.5880 ca         1 OUC      -0.127300
      9 C10         -8.9330    17.1730     3.2700 c3         1 OUC      -0.041100
     10 C11         -8.0130    16.9680     4.4910 c6         1 OUC       0.037700
     11 C13         -7.4220    19.0020     5.8040 c          1 OUC       0.709500
     12 C15         -6.0160    18.9700     5.2420 c6         1 OUC       0.039700
     13 C16         -5.7390    20.1950     4.3540 c3         1 OUC      -0.036100
     14 C17         -6.5930    20.2600     3.1220 ca         1 OUC      -0.133300
     15 C18         -7.7470    21.0370     3.0880 ca         1 OUC      -0.081500
     16 C19         -8.5430    21.1030     1.9530 ca         1 OUC      -0.197000
     17 C20         -8.2020    20.3730     0.8190 ca         1 OUC       0.142100
     18 C22         -7.0490    19.5910     0.8340 ca         1 OUC      -0.197000
     19 C23         -6.2590    19.5460     1.9700 ca         1 OUC      -0.081500
     20 C25         -6.5630    16.8350     4.0760 c          1 OUC       0.710500
     21 N12         -8.2240    17.9760     5.5040 ns         1 OUC      -0.558900
     22 N24         -5.7040    17.7360     4.5620 ns         1 OUC      -0.562900
     23 O05        -14.2530    15.7800     4.6130 oh         1 OUC      -0.494100
     24 O14         -7.7590    19.9200     6.5370 o          1 OUC      -0.641500
     25 O21         -8.9370    20.3940    -0.3110 oh         1 OUC      -0.491100
     26 O26         -6.2230    15.9020     3.3650 o          1 OUC      -0.637500
     27 H1          -8.8920    14.3740     3.6950 hc         1 OUC       0.047867
     28 H2         -10.2780    13.4190     3.1910 hc         1 OUC       0.047867
     29 H3          -9.5140    14.5380     2.0690 hc         1 OUC       0.047867
     30 H4         -12.3450    14.0760     3.8720 ha         1 OUC       0.138500
     31 H5         -13.3410    18.1770     4.5440 ha         1 OUC       0.138500
     32 H6         -10.5690    19.5700     4.9520 hc         1 OUC       0.047867
     33 H7         -10.2730    19.5690     3.2300 hc         1 OUC       0.047867
     34 H8         -11.8920    19.8670     3.8440 hc         1 OUC       0.047867
     35 H9          -8.5710    16.5360     2.4620 hc         1 OUC       0.071200
     36 H10         -8.8210    18.2000     2.9200 hc         1 OUC       0.071200
     37 H11         -8.2590    16.0030     4.9410 h1         1 OUC       0.083700
     38 H12         -5.3550    19.0430     6.1110 h1         1 OUC       0.081700
     39 H13         -4.6810    20.1680     4.0820 hc         1 OUC       0.064700
     40 H14         -5.8750    21.0880     4.9650 hc         1 OUC       0.064700
     41 H15         -8.0350    21.6100     3.9610 ha         1 OUC       0.137500
     42 H16         -9.4300    21.7280     1.9530 ha         1 OUC       0.142500
     43 H17         -6.7690    19.0270    -0.0480 ha         1 OUC       0.142500
     44 H18         -5.3560    18.9490     1.9500 ha         1 OUC       0.137500
     45 H19         -9.1380    17.9860     5.9350 hn         1 OUC       0.328500
     46 H20         -4.7340    17.6040     4.3090 hn         1 OUC       0.319500
     47 H21        -14.3850    14.8250     4.5810 ho         1 OUC       0.426000
     48 H22         -9.6990    20.9750    -0.2040 ho         1 OUC       0.427000
@<TRIPOS>BOND
     1     1     2 1   
     2     1    27 1   
     3     1    28 1   
     4     1    29 1   
     5     2     3 ar  
     6     2     8 ar  
     7     3     4 ar  
     8     3    30 1   
     9     4     5 ar  
    10     4    23 1   
    11     5     6 ar  
    12     5    31 1   
    13     6     7 1   
    14     6     8 ar  
    15     7    32 1   
    16     7    33 1   
    17     7    34 1   
    18     8     9 1   
    19     9    10 1   
    20     9    35 1   
    21     9    36 1   
    22    10    20 1   
    23    10    21 1   
    24    10    37 1   
    25    11    12 1   
    26    11    21 1   
    27    11    24 2   
    28    12    13 1   
    29    12    22 1   
    30    12    38 1   
    31    13    14 1   
    32    13    39 1   
    33    13    40 1   
    34    14    15 ar  
    35    14    19 ar  
    36    15    16 ar  
    37    15    41 1   
    38    16    17 ar  
    39    16    42 1   
    40    17    18 ar  
    41    17    25 1   
    42    18    19 ar  
    43    18    43 1   
    44    19    44 1   
    45    20    22 1   
    46    20    26 2   
    47    21    45 1   
    48    22    46 1   
    49    23    47 1   
    50    25    48 1   
@<TRIPOS>SUBSTRUCTURE
     1 OUC         1 TEMP              0 ****  ****    0 ROOT
