@<TRIPOS>MOLECULE
OUC
   48    50     1     0     0
SMALL
No Charge or Current Charge


@<TRIPOS>ATOM
      1 C01         -9.8900    14.2840     3.2010 c3         1 OUC      -0.057800
      2 C02        -10.8100    15.4440     3.5880 ca         1 OUC      -0.026300
      3 C03        -12.1470    15.1410     3.9120 ca         1 OUC      -0.182500
      4 C04        -13.0460    16.1570     4.2470 ca         1 OUC       0.148100
      5 C06        -12.6240    17.4880     4.2520 ca         1 OUC      -0.182500
      6 C07        -11.2940    17.8240     3.9360 ca         1 OUC      -0.026300
      7 C08        -10.9210    19.3040     3.9270 c3         1 OUC      -0.057800
      8 C09        -10.3640    16.7960     3.6100 ca         1 OUC      -0.127300
      9 C10         -8.8930    17.1270     3.2850 c3         1 OUC      -0.041100
     10 C11         -7.9260    16.8850     4.4860 c6         1 OUC       0.037700
     11 C13         -7.4160    18.9390     5.8930 c          1 OUC       0.567000
     12 C15         -5.9810    18.9950     5.2860 c6         1 OUC       0.039700
     13 C16         -5.8100    20.2700     4.4080 c3         1 OUC      -0.036100
     14 C17         -6.6490    20.2930     3.1320 ca         1 OUC      -0.133300
     15 C18         -7.8360    21.0500     3.0790 ca         1 OUC      -0.063500
     16 C19         -8.5960    21.0950     1.8980 ca         1 OUC      -0.179000
     17 C20         -8.1820    20.3750     0.7670 ca         1 OUC       0.142100
     18 C22         -7.0010    19.6210     0.8120 ca         1 OUC      -0.179000
     19 C23         -6.2310    19.5860     1.9870 ca         1 OUC      -0.063500
     20 C25         -6.4460    16.8540     4.0000 c          1 OUC       0.568000
     21 N12         -8.1910    17.8450     5.5850 ns         1 OUC      -0.491900
     22 N24         -5.5810    17.7730     4.5450 ns         1 OUC      -0.495900
     23 O05        -14.3390    15.8590     4.5570 oh         1 OUC      -0.533100
     24 O14         -7.8320    19.7840     6.6700 o          1 OUC      -0.566000
     25 O21         -8.9170    20.4080    -0.3790 oh         1 OUC      -0.530100
     26 O26         -6.0290    16.0070     3.2250 o          1 OUC      -0.562000
     27 H1          -9.0650    14.1650     3.9110 hc         1 OUC       0.047867
     28 H2         -10.4280    13.3290     3.1790 hc         1 OUC       0.047867
     29 H3          -9.4640    14.4270     2.2010 hc         1 OUC       0.047867
     30 H4         -12.4850    14.1080     3.8970 ha         1 OUC       0.120500
     31 H5         -13.3400    18.2670     4.5000 ha         1 OUC       0.120500
     32 H6         -10.0140    19.5050     4.5060 hc         1 OUC       0.047867
     33 H7         -10.7570    19.6510     2.9010 hc         1 OUC       0.047867
     34 H8         -11.7140    19.9280     4.3560 hc         1 OUC       0.047867
     35 H9          -8.5690    16.5280     2.4270 hc         1 OUC       0.071200
     36 H10         -8.7810    18.1570     2.9310 hc         1 OUC       0.071200
     37 H11         -8.1080    15.8810     4.8890 h1         1 OUC       0.083700
     38 H12         -5.3080    19.0870     6.1500 h1         1 OUC       0.081700
     39 H13         -4.7520    20.3730     4.1380 hc         1 OUC       0.064700
     40 H14         -6.0310    21.1580     5.0130 hc         1 OUC       0.064700
     41 H15         -8.1670    21.6090     3.9520 ha         1 OUC       0.119500
     42 H16         -9.5070    21.6890     1.8710 ha         1 OUC       0.124500
     43 H17         -6.6770    19.0680    -0.0660 ha         1 OUC       0.124500
     44 H18         -5.3090    19.0080     2.0050 ha         1 OUC       0.119500
     45 H19         -9.0980    17.8120     6.0370 hn         1 OUC       0.328500
     46 H20         -4.6120    17.6780     4.2640 hn         1 OUC       0.319500
     47 H21        -14.4540    14.8860     4.4980 ho         1 OUC       0.465000
     48 H22         -9.6920    20.9920    -0.2340 ho         1 OUC       0.466000
@<TRIPOS>BOND
     1     1     2 1   
     2     1    27 1   
     3     1    28 1   
     4     1    29 1   
     5     2     3 ar  
     6     2     8 ar  
     7     3     4 ar  
     8     3    30 1   
     9     4     5 ar  
    10     4    23 1   
    11     5     6 ar  
    12     5    31 1   
    13     6     7 1   
    14     6     8 ar  
    15     7    32 1   
    16     7    33 1   
    17     7    34 1   
    18     8     9 1   
    19     9    10 1   
    20     9    35 1   
    21     9    36 1   
    22    10    20 1   
    23    10    21 1   
    24    10    37 1   
    25    11    12 1   
    26    11    21 1   
    27    11    24 2   
    28    12    13 1   
    29    12    22 1   
    30    12    38 1   
    31    13    14 1   
    32    13    39 1   
    33    13    40 1   
    34    14    15 ar  
    35    14    19 ar  
    36    15    16 ar  
    37    15    41 1   
    38    16    17 ar  
    39    16    42 1   
    40    17    18 ar  
    41    17    25 1   
    42    18    19 ar  
    43    18    43 1   
    44    19    44 1   
    45    20    22 1   
    46    20    26 2   
    47    21    45 1   
    48    22    46 1   
    49    23    47 1   
    50    25    48 1   
@<TRIPOS>SUBSTRUCTURE
     1 OUC         1 TEMP              0 ****  ****    0 ROOT
