@<TRIPOS>MOLECULE
OUD
   19    18     1     0     0
SMALL
abcg2


@<TRIPOS>ATOM
      1 N            0.6460     1.1390     0.9900 n8         1 OUD      -0.970200
      2 CA           0.6140     0.1810    -0.1070 c3         1 OUD       0.155500
      3 C           -3.1090     0.0390     0.1630 c          1 OUD       0.731000
      4 O           -3.2040    -0.8380     1.0480 o          1 OUD      -0.766500
      5 CB           1.7850    -0.7840     0.0160 c3         1 OUD      -0.194400
      6 CG           3.1510    -0.0790    -0.0110 c          1 OUD       0.730000
      7 OD1          3.9260    -0.2840     0.9460 o          1 OUD      -0.760000
      8 OD2          3.3850     0.6350    -1.0080 o          1 OUD      -0.760000
      9 CM          -0.7100    -0.5850    -0.2020 c3         1 OUD       0.063000
     10 N2          -1.8300     0.3040    -0.3560 ns         1 OUD      -0.565900
     11 H1          -0.2190     1.6690     0.9680 hn         1 OUD       0.374500
     12 H2           0.6170     0.6270     1.8670 hn         1 OUD       0.374500
     13 HA           0.7450     0.7460    -1.0380 h1         1 OUD       0.056700
     14 HB3          1.6720    -1.3720     0.9340 hc         1 OUD       0.009200
     15 HB2          1.7400    -1.4950    -0.8160 hc         1 OUD       0.009200
     16 HM3         -0.6420    -1.3140    -1.0240 h1         1 OUD       0.016200
     17 HM2         -0.8560    -1.1610     0.7130 h1         1 OUD       0.016200
     18 HN2         -1.8350     0.8380    -1.2120 hn         1 OUD       0.248500
     19 O1          -4.0360     0.7410    -0.3000 o          1 OUD      -0.766500
@<TRIPOS>BOND
     1     1     2 1   
     2     1    11 1   
     3     1    12 1   
     4     2     5 1   
     5     2     9 1   
     6     2    13 1   
     7     3     4 1   
     8     3    10 1   
     9     3    19 1   
    10     5     6 1   
    11     5    14 1   
    12     5    15 1   
    13     6     7 1   
    14     6     8 1   
    15     9    10 1   
    16     9    16 1   
    17     9    17 1   
    18    10    18 1   
@<TRIPOS>SUBSTRUCTURE
     1 OUD         1 TEMP              0 ****  ****    0 ROOT
