@<TRIPOS>MOLECULE
OUD
   19    18     1     0     0
SMALL
No Charge or Current Charge


@<TRIPOS>ATOM
      1 N            0.2990     0.8240     1.2170 n8         1 OUD      -0.970200
      2 CA           0.5460     0.0970    -0.0390 c3         1 OUD       0.155500
      3 C           -2.7810     0.5340     0.2510 c          1 OUD       0.731000
      4 O           -2.5620     0.3420     1.4320 o          1 OUD      -0.766500
      5 CB           1.8280    -0.7660     0.0630 c3         1 OUD      -0.194400
      6 CG           3.0890     0.1120    -0.0360 c          1 OUD       0.730000
      7 OD1          3.6390     0.4690     0.9960 o          1 OUD      -0.760000
      8 OD2          3.5010     0.4030    -1.1500 o          1 OUD      -0.760000
      9 CM          -0.7040    -0.7570    -0.4200 c3         1 OUD       0.063000
     10 N2          -1.9220     0.0310    -0.6840 ns         1 OUD      -0.565900
     11 H1          -0.7230     0.7860     1.3650 hn         1 OUD       0.374500
     12 H2           0.6630     0.2570     1.9880 hn         1 OUD       0.374500
     13 HA           0.6810     0.8370    -0.8430 h1         1 OUD       0.056700
     14 HB3          1.7870    -1.3050     1.0180 hc         1 OUD       0.009200
     15 HB2          1.7900    -1.4310    -0.8090 hc         1 OUD       0.009200
     16 HM3         -0.4820    -1.3230    -1.3340 h1         1 OUD       0.016200
     17 HM2         -0.9130    -1.4870     0.3730 h1         1 OUD       0.016200
     18 HN2         -2.1620     0.2280    -1.6450 hn         1 OUD       0.248500
     19 O1          -3.7340     1.1560    -0.1730 o          1 OUD      -0.766500
@<TRIPOS>BOND
     1     1     2 1   
     2     1    11 1   
     3     1    12 1   
     4     2     5 1   
     5     2     9 1   
     6     2    13 1   
     7     3     4 1   
     8     3    10 1   
     9     3    19 1   
    10     5     6 1   
    11     5    14 1   
    12     5    15 1   
    13     6     7 1   
    14     6     8 1   
    15     9    10 1   
    16     9    16 1   
    17     9    17 1   
    18    10    18 1   
@<TRIPOS>SUBSTRUCTURE
     1 OUD         1 TEMP              0 ****  ****    0 ROOT
