@<TRIPOS>MOLECULE
OUE
   22    21     1     0     0
SMALL
No Charge or Current Charge


@<TRIPOS>ATOM
      1 N            0.0420     1.8390    -0.4700 n8         1 OUE      -1.001200
      2 CA           0.0250     0.5120     0.1920 c3         1 OUE       0.129500
      3 C            3.7500    -0.2960     0.1170 c          1 OUE       0.725000
      4 O            3.8280    -1.4970    -0.0650 o          1 OUE      -0.769500
      5 CB          -1.3140    -0.2180    -0.0940 c3         1 OUE      -0.091400
      6 CG          -2.5840     0.5250     0.4100 c3         1 OUE      -0.204400
      7 CD          -3.8340    -0.3510     0.1990 c          1 OUE       0.715000
      8 OE1         -4.4290    -0.2630    -0.8650 o          1 OUE      -0.753000
      9 OE2         -4.1500    -1.1300     1.0850 o          1 OUE      -0.753000
     10 CM           1.2540    -0.3600    -0.2080 c3         1 OUE       0.122000
     11 N2           2.5310     0.3090     0.0580 ns         1 OUE      -0.546900
     12 H1           0.0690     1.6970    -1.4850 hn         1 OUE       0.375000
     13 H           -0.8700     2.2810    -0.3130 hn         1 OUE       0.375000
     14 HA           0.0790     0.6860     1.2770 h1         1 OUE       0.046700
     15 HB3         -1.4060    -0.4040    -1.1720 hc         1 OUE       0.042700
     16 HB2         -1.2770    -1.2030     0.3870 hc         1 OUE       0.042700
     17 HG3         -2.4200     0.7030     1.4810 hc         1 OUE       0.009700
     18 HG2         -2.6630     1.4450    -0.1830 hc         1 OUE       0.009700
     19 HM2          1.2210    -1.3000     0.3580 h1         1 OUE       0.014700
     20 HM3          1.2050    -0.6010    -1.2780 h1         1 OUE       0.014700
     21 HN2          2.5180     1.3090     0.2000 hn         1 OUE       0.265500
     22 O1           4.7010     0.4220     0.3480 o          1 OUE      -0.769500
@<TRIPOS>BOND
     1     1     2 1   
     2     1    12 1   
     3     1    13 1   
     4     2     5 1   
     5     2    10 1   
     6     2    14 1   
     7     3     4 1   
     8     3    11 1   
     9     3    22 1   
    10     5     6 1   
    11     5    15 1   
    12     5    16 1   
    13     6     7 1   
    14     6    17 1   
    15     6    18 1   
    16     7     8 1   
    17     7     9 1   
    18    10    11 1   
    19    10    19 1   
    20    10    20 1   
    21    11    21 1   
@<TRIPOS>SUBSTRUCTURE
     1 OUE         1 TEMP              0 ****  ****    0 ROOT
