@<TRIPOS>MOLECULE
OUE
   22    21     1     0     0
SMALL
bcc


@<TRIPOS>ATOM
      1 N            0.1430     1.6960    -0.6040 n8         1 OUE      -0.890800
      2 CA           0.0170     0.4970     0.2220 c3         1 OUE       0.129500
      3 C            3.7160    -0.2260     0.1140 c          1 OUE       1.002600
      4 O            3.7690    -1.4740     0.0470 o          1 OUE      -0.874800
      5 CB          -1.2650    -0.3080    -0.0060 c3         1 OUE      -0.091400
      6 CG          -2.5360     0.4850     0.2480 c3         1 OUE      -0.204400
      7 CD          -3.8570    -0.2900     0.0890 c          1 OUE       0.925600
      8 OE1         -4.9010     0.3680     0.2910 o          1 OUE      -0.858300
      9 OE2         -3.7970    -1.4950    -0.2240 o          1 OUE      -0.858300
     10 CM           1.2450    -0.3830     0.0060 c3         1 OUE       0.122000
     11 N2           2.4520     0.3510     0.2860 ns         1 OUE      -0.613900
     12 H1          -0.0030     1.4500    -1.5780 hn         1 OUE       0.319800
     13 H           -0.5910     2.3540    -0.3740 hn         1 OUE       0.319800
     14 HA           0.0290     0.8350     1.2660 h1         1 OUE       0.046700
     15 HB3         -1.2650    -0.6960    -1.0300 hc         1 OUE       0.042700
     16 HB2         -1.2480    -1.1840     0.6490 hc         1 OUE       0.042700
     17 HG3         -2.5090     0.9090     1.2600 hc         1 OUE       0.009700
     18 HG2         -2.5820     1.3520    -0.4190 hc         1 OUE       0.009700
     19 HM2          1.1740    -1.2520     0.6640 h1         1 OUE       0.014700
     20 HM3          1.2160    -0.7760    -1.0240 h1         1 OUE       0.014700
     21 HN2          2.3860     1.3230     0.0240 hn         1 OUE       0.265500
     22 O1           4.6840     0.5680     0.0720 o          1 OUE      -0.874800
@<TRIPOS>BOND
     1     1     2 1   
     2     1    12 1   
     3     1    13 1   
     4     2     5 1   
     5     2    10 1   
     6     2    14 1   
     7     3     4 1   
     8     3    11 1   
     9     3    22 1   
    10     5     6 1   
    11     5    15 1   
    12     5    16 1   
    13     6     7 1   
    14     6    17 1   
    15     6    18 1   
    16     7     8 1   
    17     7     9 1   
    18    10    11 1   
    19    10    19 1   
    20    10    20 1   
    21    11    21 1   
@<TRIPOS>SUBSTRUCTURE
     1 OUE         1 TEMP              0 ****  ****    0 ROOT
