@<TRIPOS>MOLECULE
OUF
   56    58     1     0     0
SMALL
No Charge or Current Charge


@<TRIPOS>ATOM
      1 N1           8.7530    -0.5150    28.6010 ns         1 OUF      -0.438100
      2 C4           8.6190    -0.6270    25.1390 c3         1 OUF      -0.103400
      3 C5           9.6340    -1.3400    26.0570 c3         1 OUF       0.099000
      4 C6           8.8330    -3.6750    26.6060 c3         1 OUF       0.084700
      5 C7           9.9630    -4.5470    27.0920 cc         1 OUF       0.103300
      6 C8          11.2490    -4.2460    27.4530 cd         1 OUF      -0.171000
      7 C10         10.9400    -6.4500    27.6630 cc         1 OUF       0.130900
      8 C13          8.1290    -0.3690    30.9450 cc         1 OUF      -0.014400
      9 C15          8.0400     1.7890    32.1270 c          1 OUF       0.565600
     10 C17          8.6170     3.8660    30.8020 ca         1 OUF      -0.042000
     11 C20          9.0700     2.3480    28.4890 ca         1 OUF      -0.123000
     12 C21          8.6840     1.6940    29.6840 ca         1 OUF       0.013200
     13 O3           7.8360     2.4360    33.1490 o          1 OUF      -0.556000
     14 N2           7.8960     0.3820    32.1030 n          1 OUF      -0.289000
     15 C14          7.4880    -0.2910    33.3590 c3         1 OUF       0.086300
     16 C16          8.4560     2.4630    30.8450 ca         1 OUF      -0.161600
     17 C19          9.2270     3.7430    28.4550 ca         1 OUF      -0.073000
     18 C18          9.0010     4.5010    29.6110 ca         1 OUF      -0.135000
     19 C12          8.5080     0.2290    29.7570 cd         1 OUF      -0.025600
     20 C11          8.6030    -1.8630    28.3280 c          1 OUF       0.655100
     21 O2           8.1570    -2.6680    29.1310 o          1 OUF      -0.622100
     22 N            8.9840    -2.2590    27.0270 n          1 OUF      -0.431800
     23 O1           9.7580    -5.9040    27.2130 os         1 OUF      -0.237000
     24 C9          11.8690    -5.4580    27.8180 cd         1 OUF      -0.191000
     25 C3           9.2710     0.3850    24.1790 c3         1 OUF       0.164600
     26 O           10.1840    -0.3370    23.3310 os         1 OUF      -0.479000
     27 C1          10.8430     0.4280    22.3030 c3         1 OUF       0.171300
     28 C2          11.8390     1.4170    22.9510 c3         1 OUF      -0.104600
     29 C           11.5470    -0.5890    21.3850 c3         1 OUF      -0.104600
     30 H1           9.0840    -0.0080    27.7950 hn         1 OUF       0.313500
     31 H2           7.8830    -0.0970    25.7550 hc         1 OUF       0.054200
     32 H3           8.0650    -1.3730    24.5570 hc         1 OUF       0.054200
     33 H4          10.3220    -1.9240    25.4310 h1         1 OUF       0.060700
     34 H5          10.2540    -0.6020    26.5820 h1         1 OUF       0.060700
     35 H6           8.7900    -3.7310    25.5100 h1         1 OUF       0.080200
     36 H7           7.8830    -4.0710    26.9870 h1         1 OUF       0.080200
     37 H8          11.6990    -3.2580    27.4570 ha         1 OUF       0.141000
     38 H9          10.9800    -7.5190    27.8250 h4         1 OUF       0.051100
     39 H10          7.9840    -1.4280    31.1120 h4         1 OUF       0.209000
     40 H11          8.4440     4.4690    31.6910 ha         1 OUF       0.136000
     41 H12          9.2500     1.7920    27.5740 ha         1 OUF       0.114000
     42 H13          8.2350    -0.1010    34.1400 h1         1 OUF       0.054033
     43 H14          6.5160     0.0980    33.6890 h1         1 OUF       0.054033
     44 H15          7.4000    -1.3750    33.2130 h1         1 OUF       0.054033
     45 H16          9.5240     4.2350    27.5310 ha         1 OUF       0.113000
     46 H17          9.1230     5.5820    29.5860 ha         1 OUF       0.118000
     47 H18         12.8920    -5.5890    28.1580 ha         1 OUF       0.140000
     48 H19          9.7910     1.1520    24.7660 h1         1 OUF       0.025700
     49 H20          8.4900     0.8740    23.5810 h1         1 OUF       0.025700
     50 H21         10.1110     0.9880    21.7050 h1         1 OUF       0.030700
     51 H22         11.3140     2.2230    23.4760 hc         1 OUF       0.043033
     52 H23         12.4940     0.9010    23.6630 hc         1 OUF       0.043033
     53 H24         12.4680     1.8820    22.1830 hc         1 OUF       0.043033
     54 H25         10.8170    -1.2810    20.9490 hc         1 OUF       0.043033
     55 H26         12.0590    -0.0740    20.5640 hc         1 OUF       0.043033
     56 H27         12.2890    -1.1720    21.9430 hc         1 OUF       0.043033
@<TRIPOS>BOND
     1     1    19 1   
     2     1    20 1   
     3     1    30 1   
     4     2     3 1   
     5     2    25 1   
     6     2    31 1   
     7     2    32 1   
     8     3    22 1   
     9     3    33 1   
    10     3    34 1   
    11     4     5 1   
    12     4    22 1   
    13     4    35 1   
    14     4    36 1   
    15     5     6 2   
    16     5    23 1   
    17     6    24 1   
    18     6    37 1   
    19     7    23 1   
    20     7    24 2   
    21     7    38 1   
    22     8    14 1   
    23     8    19 2   
    24     8    39 1   
    25     9    13 2   
    26     9    14 1   
    27     9    16 1   
    28    10    16 ar  
    29    10    18 ar  
    30    10    40 1   
    31    11    12 ar  
    32    11    17 ar  
    33    11    41 1   
    34    12    16 ar  
    35    12    19 1   
    36    14    15 1   
    37    15    42 1   
    38    15    43 1   
    39    15    44 1   
    40    17    18 ar  
    41    17    45 1   
    42    18    46 1   
    43    20    21 2   
    44    20    22 1   
    45    24    47 1   
    46    25    26 1   
    47    25    48 1   
    48    25    49 1   
    49    26    27 1   
    50    27    28 1   
    51    27    29 1   
    52    27    50 1   
    53    28    51 1   
    54    28    52 1   
    55    28    53 1   
    56    29    54 1   
    57    29    55 1   
    58    29    56 1   
@<TRIPOS>SUBSTRUCTURE
     1 OUF         1 TEMP              0 ****  ****    0 ROOT
