@<TRIPOS>MOLECULE
OUF
   56    58     1     0     0
SMALL
abcg2


@<TRIPOS>ATOM
      1 N1           9.2940    -0.0670    28.7950 ns         1 OUF      -0.438100
      2 C4           9.6630     0.1650    25.4110 c3         1 OUF      -0.103400
      3 C5          10.0950    -1.0150    26.2830 c3         1 OUF       0.099000
      4 C6           8.2970    -2.7170    26.4490 c3         1 OUF       0.084700
      5 C7           9.1010    -3.9690    26.4620 cc         1 OUF       0.103300
      6 C8           9.7040    -4.6990    25.4890 cd         1 OUF      -0.171000
      7 C10         10.1190    -5.6470    27.4660 cc         1 OUF       0.130900
      8 C13          9.3990     0.2660    31.1620 cc         1 OUF      -0.014400
      9 C15          8.0560     1.8500    32.4040 c          1 OUF       0.565600
     10 C17          6.4680     3.2330    31.1100 ca         1 OUF      -0.042000
     11 C20          7.2310     2.0150    28.7180 ca         1 OUF      -0.123000
     12 C21          7.8420     1.6120    29.9190 ca         1 OUF       0.013200
     13 O3           7.7550     2.3500    33.4920 o          1 OUF      -0.556000
     14 N2           9.0250     0.8630    32.3390 n          1 OUF      -0.289000
     15 C14          9.6620     0.4600    33.5940 c3         1 OUF       0.086300
     16 C16          7.4510     2.2330    31.1270 ca         1 OUF      -0.161600
     17 C19          6.2650     3.0010    28.7230 ca         1 OUF      -0.073000
     18 C18          5.8790     3.6160    29.9230 ca         1 OUF      -0.135000
     19 C12          8.8540     0.5940    29.9710 cd         1 OUF      -0.025600
     20 C11          8.5880    -1.1310    28.2750 c          1 OUF       0.655100
     21 O2           7.6520    -1.6400    28.9000 o          1 OUF      -0.622100
     22 N            9.0010    -1.5900    27.0590 n          1 OUF      -0.431800
     23 O1           9.3480    -4.5400    27.6830 os         1 OUF      -0.237000
     24 C9          10.3640    -5.7930    26.1410 cd         1 OUF      -0.191000
     25 C3          10.7520     0.5910    24.4450 c3         1 OUF       0.164600
     26 O           10.9500    -0.4560    23.5030 os         1 OUF      -0.479000
     27 C1          11.9780    -0.2080    22.5340 c3         1 OUF       0.171300
     28 C2          13.3650    -0.4240    23.1280 c3         1 OUF      -0.104600
     29 C           11.7060    -1.1340    21.3620 c3         1 OUF      -0.104600
     30 H1           9.9310     0.4390    28.2030 hn         1 OUF       0.313500
     31 H2           9.3930     1.0200    26.0360 hc         1 OUF       0.054200
     32 H3           8.7710    -0.1130    24.8440 hc         1 OUF       0.054200
     33 H4          10.4840    -1.8100    25.6480 h1         1 OUF       0.060700
     34 H5          10.9180    -0.7320    26.9420 h1         1 OUF       0.060700
     35 H6           8.0630    -2.4730    25.4110 h1         1 OUF       0.080200
     36 H7           7.3620    -2.8550    26.9860 h1         1 OUF       0.080200
     37 H8           9.6850    -4.4810    24.4340 ha         1 OUF       0.141000
     38 H9          10.3990    -6.2070    28.3410 h4         1 OUF       0.051100
     39 H10         10.1600    -0.4970    31.2390 h4         1 OUF       0.209000
     40 H11          6.1840     3.6960    32.0450 ha         1 OUF       0.136000
     41 H12          7.5250     1.5440    27.7900 ha         1 OUF       0.114000
     42 H13         10.1570     1.3150    34.0510 h1         1 OUF       0.054033
     43 H14          8.9110     0.0800    34.2860 h1         1 OUF       0.054033
     44 H15         10.3900    -0.3160    33.3790 h1         1 OUF       0.054033
     45 H16          5.8010     3.3020    27.7920 ha         1 OUF       0.113000
     46 H17          5.1220     4.3880    29.9150 ha         1 OUF       0.118000
     47 H18         10.9430    -6.5770    25.6810 ha         1 OUF       0.140000
     48 H19         11.6790     0.8010    24.9920 h1         1 OUF       0.025700
     49 H20         10.4590     1.5080    23.9210 h1         1 OUF       0.025700
     50 H21         11.8860     0.8340    22.1990 h1         1 OUF       0.030700
     51 H22         13.5490     0.2390    23.9740 hc         1 OUF       0.043033
     52 H23         13.4710    -1.4580    23.4660 hc         1 OUF       0.043033
     53 H24         14.1310    -0.2270    22.3750 hc         1 OUF       0.043033
     54 H25         10.7130    -0.9510    20.9480 hc         1 OUF       0.043033
     55 H26         12.4460    -0.9790    20.5750 hc         1 OUF       0.043033
     56 H27         11.7620    -2.1770    21.6840 hc         1 OUF       0.043033
@<TRIPOS>BOND
     1     1    19 1   
     2     1    20 1   
     3     1    30 1   
     4     2     3 1   
     5     2    25 1   
     6     2    31 1   
     7     2    32 1   
     8     3    22 1   
     9     3    33 1   
    10     3    34 1   
    11     4     5 1   
    12     4    22 1   
    13     4    35 1   
    14     4    36 1   
    15     5     6 2   
    16     5    23 1   
    17     6    24 1   
    18     6    37 1   
    19     7    23 1   
    20     7    24 2   
    21     7    38 1   
    22     8    14 1   
    23     8    19 2   
    24     8    39 1   
    25     9    13 2   
    26     9    14 1   
    27     9    16 1   
    28    10    16 ar  
    29    10    18 ar  
    30    10    40 1   
    31    11    12 ar  
    32    11    17 ar  
    33    11    41 1   
    34    12    16 ar  
    35    12    19 1   
    36    14    15 1   
    37    15    42 1   
    38    15    43 1   
    39    15    44 1   
    40    17    18 ar  
    41    17    45 1   
    42    18    46 1   
    43    20    21 2   
    44    20    22 1   
    45    24    47 1   
    46    25    26 1   
    47    25    48 1   
    48    25    49 1   
    49    26    27 1   
    50    27    28 1   
    51    27    29 1   
    52    27    50 1   
    53    28    51 1   
    54    28    52 1   
    55    28    53 1   
    56    29    54 1   
    57    29    55 1   
    58    29    56 1   
@<TRIPOS>SUBSTRUCTURE
     1 OUF         1 TEMP              0 ****  ****    0 ROOT
