@<TRIPOS>MOLECULE
OUG
   37    39     1     0     0
SMALL
abcg2


@<TRIPOS>ATOM
      1 C10        117.6660   247.5590   359.6130 ca         1 OUG       0.324000
      2 C11        115.1010   248.0950   362.3910 c3         1 OUG      -0.055800
      3 C23        121.9480   250.5230   357.1710 ca         1 OUG      -0.088300
      4 C24        121.6650   251.8340   356.7900 ca         1 OUG      -0.110000
      5 C22        121.0040   249.8250   357.9130 ca         1 OUG      -0.076000
      6 C21        119.7880   250.4060   358.2790 cp         1 OUG      -0.040000
      7 C26        119.5240   251.7180   357.8830 ca         1 OUG      -0.099000
      8 C02        116.6590   245.5480   360.0340 ca         1 OUG       0.618900
      9 C03        115.8380   246.1330   361.0470 ca         1 OUG      -0.214000
     10 C04        115.9480   247.4580   361.3360 ca         1 OUG       0.006700
     11 C06        117.1040   249.6070   360.7960 ca         1 OUG      -0.079000
     12 C08        118.7980   249.6480   359.0710 cp         1 OUG      -0.013000
     13 C09        118.6090   248.2970   358.8670 ca         1 OUG      -0.092000
     14 C25        120.4590   252.4230   357.1400 ca         1 OUG      -0.114000
     15 N28        123.6380   248.7890   357.6230 n8         1 OUG      -0.999200
     16 C07        118.0250   250.3010   360.0560 ca         1 OUG      -0.122000
     17 C05        116.8980   248.2290   360.5960 ca         1 OUG      -0.123000
     18 N02        116.4990   244.2340   359.7400 nv         1 OUG      -1.068900
     19 N01        117.5380   246.2370   359.3470 nb         1 OUG      -0.759000
     20 H1         114.4930   248.8990   361.9730 hc         1 OUG       0.048033
     21 H2         114.4310   247.3710   362.8510 hc         1 OUG       0.048033
     22 H3         115.7140   248.5350   363.1790 hc         1 OUG       0.048033
     23 H4         122.3930   252.3970   356.2190 ha         1 OUG       0.108000
     24 H5         121.2360   248.8180   358.2370 ha         1 OUG       0.137000
     25 H6         118.5820   252.1850   358.1400 ha         1 OUG       0.114000
     26 H7         115.1270   245.5090   361.5760 ha         1 OUG       0.117000
     27 H8         116.5330   250.1330   361.5510 ha         1 OUG       0.110000
     28 H9         119.1720   247.7690   358.1070 ha         1 OUG       0.134000
     29 H10        120.2460   253.4390   356.8330 ha         1 OUG       0.111000
     30 H11        124.4620   248.3390   357.2440 hn         1 OUG       0.396500
     31 H12        123.9070   249.1430   358.5320 hn         1 OUG       0.396500
     32 H14        123.1480   249.5020   355.7460 h1         1 OUG       0.034700
     33 H15        124.0150   250.6850   356.6940 h1         1 OUG       0.034700
     34 H16        118.1760   251.3550   360.2480 ha         1 OUG       0.114000
     35 H17        117.2120   243.7940   359.1830 hn         1 OUG       0.477000
     36 H18        116.0520   243.6360   360.4140 hn         1 OUG       0.477000
     37 C27        123.2580   249.8930   356.7620 c3         1 OUG       0.198100
@<TRIPOS>BOND
     1     1    13 ar  
     2     1    17 ar  
     3     1    19 ar  
     4     2    10 1   
     5     2    20 1   
     6     2    21 1   
     7     2    22 1   
     8     3     4 ar  
     9     3     5 ar  
    10     3    37 1   
    11     4    14 ar  
    12     4    23 1   
    13     5     6 ar  
    14     5    24 1   
    15     6     7 ar  
    16     6    12 1   
    17     7    14 ar  
    18     7    25 1   
    19     8     9 ar  
    20     8    18 1   
    21     8    19 ar  
    22     9    10 ar  
    23     9    26 1   
    24    10    17 ar  
    25    11    16 ar  
    26    11    17 ar  
    27    11    27 1   
    28    12    13 ar  
    29    12    16 ar  
    30    13    28 1   
    31    14    29 1   
    32    15    30 1   
    33    15    31 1   
    34    15    37 1   
    35    16    34 1   
    36    18    35 1   
    37    18    36 1   
    38    32    37 1   
    39    33    37 1   
@<TRIPOS>SUBSTRUCTURE
     1 OUG         1 TEMP              0 ****  ****    0 ROOT
