@<TRIPOS>MOLECULE
OUG
   37    39     1     0     0
SMALL
No Charge or Current Charge


@<TRIPOS>ATOM
      1 C10        117.5380   247.4990   359.5970 ca         1 OUG       0.324000
      2 C11        115.0130   248.0830   362.4740 c3         1 OUG      -0.055800
      3 C23        121.9720   250.3700   357.1320 ca         1 OUG      -0.088300
      4 C24        121.7650   251.7240   356.8080 ca         1 OUG      -0.110000
      5 C22        120.9970   249.6810   357.8800 ca         1 OUG      -0.076000
      6 C21        119.8080   250.3210   358.3160 cp         1 OUG      -0.040000
      7 C26        119.6290   251.6850   357.9740 ca         1 OUG      -0.099000
      8 C02        116.4130   245.5470   360.0080 ca         1 OUG       0.618900
      9 C03        115.6480   246.1000   361.0320 ca         1 OUG      -0.214000
     10 C04        115.8400   247.4510   361.3590 ca         1 OUG       0.006700
     11 C06        117.0720   249.5340   360.8760 ca         1 OUG      -0.079000
     12 C08        118.7760   249.5810   359.1100 cp         1 OUG      -0.013000
     13 C09        118.5030   248.2140   358.8660 ca         1 OUG      -0.092000
     14 C25        120.5970   252.3790   357.2280 ca         1 OUG      -0.114000
     15 N28        124.2510   249.6140   357.7450 n8         1 OUG      -0.999200
     16 C07        118.0390   250.2250   360.1310 ca         1 OUG      -0.122000
     17 C05        116.8120   248.1700   360.6200 ca         1 OUG      -0.123000
     18 N02        116.3240   244.2750   359.6180 nv         1 OUG      -1.068900
     19 N01        117.3290   246.1930   359.3060 nb         1 OUG      -0.759000
     20 H1         114.4150   248.9210   362.0960 hc         1 OUG       0.048033
     21 H2         114.3180   247.3630   362.9230 hc         1 OUG       0.048033
     22 H3         115.6570   248.4590   363.2780 hc         1 OUG       0.048033
     23 H4         122.5090   252.2690   356.2310 ha         1 OUG       0.108000
     24 H5         121.1740   248.6400   358.1400 ha         1 OUG       0.137000
     25 H6         118.7260   252.2080   358.2780 ha         1 OUG       0.114000
     26 H7         114.9190   245.4920   361.5590 ha         1 OUG       0.117000
     27 H8         116.5360   250.0740   361.6530 ha         1 OUG       0.110000
     28 H9         119.0400   247.6940   358.0790 ha         1 OUG       0.134000
     29 H10        120.4390   253.4250   356.9730 ha         1 OUG       0.111000
     30 H11        125.1160   249.2100   357.3670 hn         1 OUG       0.396500
     31 H12        124.5150   250.5780   357.9790 hn         1 OUG       0.396500
     32 H14        122.9930   248.6240   356.3790 h1         1 OUG       0.034700
     33 H15        123.6620   250.1680   355.8030 h1         1 OUG       0.034700
     34 H16        118.2280   251.2710   360.3590 ha         1 OUG       0.114000
     35 H17        117.0970   243.9630   359.0430 hn         1 OUG       0.477000
     36 H18        115.9590   243.6060   360.2850 hn         1 OUG       0.477000
     37 C27        123.2370   249.6540   356.6760 c3         1 OUG       0.198100
@<TRIPOS>BOND
     1     1    13 ar  
     2     1    17 ar  
     3     1    19 ar  
     4     2    10 1   
     5     2    20 1   
     6     2    21 1   
     7     2    22 1   
     8     3     4 ar  
     9     3     5 ar  
    10     3    37 1   
    11     4    14 ar  
    12     4    23 1   
    13     5     6 ar  
    14     5    24 1   
    15     6     7 ar  
    16     6    12 1   
    17     7    14 ar  
    18     7    25 1   
    19     8     9 ar  
    20     8    18 1   
    21     8    19 ar  
    22     9    10 ar  
    23     9    26 1   
    24    10    17 ar  
    25    11    16 ar  
    26    11    17 ar  
    27    11    27 1   
    28    12    13 ar  
    29    12    16 ar  
    30    13    28 1   
    31    14    29 1   
    32    15    30 1   
    33    15    31 1   
    34    15    37 1   
    35    16    34 1   
    36    18    35 1   
    37    18    36 1   
    38    32    37 1   
    39    33    37 1   
@<TRIPOS>SUBSTRUCTURE
     1 OUG         1 TEMP              0 ****  ****    0 ROOT
