@<TRIPOS>MOLECULE
OUH
   24    24     1     0     0
SMALL
No Charge or Current Charge


@<TRIPOS>ATOM
      1 N           -0.0720     1.4910    -0.1030 n8         1 OUH      -0.983200
      2 CA           0.0860     0.0180    -0.0010 c3         1 OUH       0.141500
      3 C            3.8720    -0.2170     0.3300 c          1 OUH       0.725000
      4 O            4.1940    -1.2370    -0.2510 o          1 OUH      -0.749000
      5 CB          -1.0470    -0.6980    -0.7770 c3         1 OUH      -0.056100
      6 CG          -2.4370    -0.3260    -0.3210 cc         1 OUH      -0.181300
      7 CD2         -3.4050     0.4070    -0.9630 cd         1 OUH       0.208900
      8 ND1         -3.0060    -0.7000     0.8780 na         1 OUH      -0.298500
      9 CE1         -4.2760    -0.1800     0.9250 cc         1 OUH       0.372400
     10 NE2         -4.5410     0.4970    -0.1830 nd         1 OUH      -0.682000
     11 CM           1.4960    -0.4580    -0.4620 c3         1 OUH       0.127000
     12 N2           2.5810     0.2100     0.2620 ns         1 OUH      -0.546900
     13 H1           0.0680     1.7710    -1.0790 hn         1 OUH       0.384500
     14 H           -1.0580     1.7140     0.0720 hn         1 OUH       0.384500
     15 HA          -0.0230    -0.2500     1.0600 h1         1 OUH       0.057700
     16 HB2         -0.9420    -0.4840    -1.8490 hc         1 OUH       0.058200
     17 HB3         -0.9140    -1.7830    -0.6730 hc         1 OUH       0.058200
     18 HD2         -3.3470     0.8740    -1.9390 h4         1 OUH       0.032100
     19 HD1         -2.5820    -1.2600     1.6070 hn         1 OUH       0.353000
     20 HE1         -4.9390    -0.3280     1.7710 h5         1 OUH       0.045100
     21 HM2          1.5750    -1.5410    -0.3020 h1         1 OUH       0.014700
     22 HM3          1.6210    -0.2600    -1.5350 h1         1 OUH       0.014700
     23 HN2          2.3650     1.0700     0.7460 hn         1 OUH       0.268500
     24 O1           4.6360     0.4700     0.9790 o          1 OUH      -0.749000
@<TRIPOS>BOND
     1     1     2 1   
     2     1    13 1   
     3     1    14 1   
     4     2     5 1   
     5     2    11 1   
     6     2    15 1   
     7     3     4 1   
     8     3    12 1   
     9     3    24 1   
    10     5     6 1   
    11     5    16 1   
    12     5    17 1   
    13     6     7 2   
    14     6     8 1   
    15     7    10 1   
    16     7    18 1   
    17     8     9 1   
    18     8    19 1   
    19     9    10 2   
    20     9    20 1   
    21    11    12 1   
    22    11    21 1   
    23    11    22 1   
    24    12    23 1   
@<TRIPOS>SUBSTRUCTURE
     1 OUH         1 TEMP              0 ****  ****    0 ROOT
