@<TRIPOS>MOLECULE
OUH
   24    24     1     0     0
SMALL
bcc


@<TRIPOS>ATOM
      1 N           -0.0170     1.4460    -0.0470 n8         1 OUH      -0.872800
      2 CA           0.0600    -0.0010     0.0720 c3         1 OUH       0.141500
      3 C            3.8230    -0.1580     0.2240 c          1 OUH       1.002600
      4 O            4.0780    -1.2150    -0.3930 o          1 OUH      -0.854300
      5 CB          -1.0200    -0.7580    -0.7250 c3         1 OUH      -0.056100
      6 CG          -2.4030    -0.3590    -0.3590 cc         1 OUH      -0.195900
      7 CD2         -3.3160     0.4520    -0.9780 cd         1 OUH       0.274200
      8 ND1         -3.0180    -0.7360     0.8040 na         1 OUH      -0.298900
      9 CE1         -4.2390    -0.1630     0.8370 cc         1 OUH       0.372400
     10 NE2         -4.4550     0.5650    -0.2270 nd         1 OUH      -0.682000
     11 CM           1.4420    -0.4770    -0.3600 c3         1 OUH       0.127000
     12 N2           2.4690     0.1500     0.4270 ns         1 OUH      -0.613900
     13 H1           0.0330     1.7090    -1.0260 hn         1 OUH       0.329300
     14 H           -0.9150     1.7760     0.2840 hn         1 OUH       0.329300
     15 HA          -0.0620    -0.2450     1.1340 h1         1 OUH       0.057700
     16 HB2         -0.8760    -0.5680    -1.7920 hc         1 OUH       0.058200
     17 HB3         -0.8870    -1.8350    -0.5790 hc         1 OUH       0.058200
     18 HD2         -3.2040     0.9550    -1.9270 h4         1 OUH       0.032100
     19 HD1         -2.6320    -1.3440     1.5100 hn         1 OUH       0.302700
     20 HE1         -4.9250    -0.3150     1.6560 h5         1 OUH       0.045100
     21 HM2          1.4910    -1.5610    -0.2410 h1         1 OUH       0.014700
     22 HM3          1.5490    -0.2830    -1.4410 h1         1 OUH       0.014700
     23 HN2          2.2780     1.1190     0.6320 hn         1 OUH       0.268500
     24 O1           4.6500     0.6470     0.7080 o          1 OUH      -0.854300
@<TRIPOS>BOND
     1     1     2 1   
     2     1    13 1   
     3     1    14 1   
     4     2     5 1   
     5     2    11 1   
     6     2    15 1   
     7     3     4 1   
     8     3    12 1   
     9     3    24 1   
    10     5     6 1   
    11     5    16 1   
    12     5    17 1   
    13     6     7 2   
    14     6     8 1   
    15     7    10 1   
    16     7    18 1   
    17     8     9 1   
    18     8    19 1   
    19     9    10 2   
    20     9    20 1   
    21    11    12 1   
    22    11    21 1   
    23    11    22 1   
    24    12    23 1   
@<TRIPOS>SUBSTRUCTURE
     1 OUH         1 TEMP              0 ****  ****    0 ROOT
