@<TRIPOS>MOLECULE
OUI
   26    25     1     0     0
SMALL
abcg2


@<TRIPOS>ATOM
      1 N           -0.4200     1.5340    -0.4460 n8         1 OUI      -1.015200
      2 CA          -0.6240     0.3180     0.3310 c3         1 OUI       0.129500
      3 C            2.6370     0.5760    -0.4670 c          1 OUI       0.722000
      4 O            2.4000     0.2590    -1.6540 o          1 OUI      -0.746000
      5 CB          -1.9290    -0.3680    -0.1120 c3         1 OUI      -0.048700
      6 CG1         -3.1330     0.5460     0.1380 c3         1 OUI      -0.073400
      7 CG2         -2.1290    -1.7220     0.5660 c3         1 OUI      -0.084100
      8 CD1         -4.4200     0.0970    -0.5430 c3         1 OUI      -0.084100
      9 CM           0.5820    -0.6430     0.2780 c3         1 OUI       0.076000
     10 N2           1.8520    -0.0160     0.5340 ns         1 OUI      -0.564900
     11 H1           0.3100     2.0860    -0.0130 hn         1 OUI       0.411000
     12 H           -0.0520     1.2800    -1.3570 hn         1 OUI       0.411000
     13 HA          -0.7550     0.6280     1.3770 h1         1 OUI       0.027700
     14 HB          -1.8510    -0.5390    -1.1960 hc         1 OUI       0.047700
     15 HG13        -3.2980     0.6210     1.2190 hc         1 OUI       0.044200
     16 HG12        -2.8810     1.5510    -0.2030 hc         1 OUI       0.044200
     17 HG21        -2.0710    -1.6250     1.6540 hc         1 OUI       0.023367
     18 HG22        -3.1060    -2.1440     0.3280 hc         1 OUI       0.023367
     19 HG23        -1.3850    -2.4560     0.2590 hc         1 OUI       0.023367
     20 HD12        -4.2880     0.0210    -1.6240 hc         1 OUI       0.019700
     21 HD13        -4.7650    -0.8740    -0.1850 hc         1 OUI       0.019700
     22 HD11        -5.2250     0.8100    -0.3620 hc         1 OUI       0.019700
     23 HM2          0.4350    -1.4480     1.0040 h1         1 OUI       0.034700
     24 HM3          0.6290    -1.1120    -0.7060 h1         1 OUI       0.034700
     25 HN2          1.9540     0.3960     1.4480 hn         1 OUI       0.252500
     26 O1           3.5390     1.3460    -0.0660 o          1 OUI      -0.746000
@<TRIPOS>BOND
     1     1     2 1   
     2     1    11 1   
     3     1    12 1   
     4     2     5 1   
     5     2     9 1   
     6     2    13 1   
     7     3     4 1   
     8     3    10 1   
     9     3    26 1   
    10     5     6 1   
    11     5     7 1   
    12     5    14 1   
    13     6     8 1   
    14     6    15 1   
    15     6    16 1   
    16     7    17 1   
    17     7    18 1   
    18     7    19 1   
    19     8    20 1   
    20     8    21 1   
    21     8    22 1   
    22     9    10 1   
    23     9    23 1   
    24     9    24 1   
    25    10    25 1   
@<TRIPOS>SUBSTRUCTURE
     1 OUI         1 TEMP              0 ****  ****    0 ROOT
