@<TRIPOS>MOLECULE
OUI
   26    25     1     0     0
SMALL
No Charge or Current Charge


@<TRIPOS>ATOM
      1 N           -0.3570     1.5320    -0.5190 n8         1 OUI      -1.015200
      2 CA          -0.5910     0.3050     0.2700 c3         1 OUI       0.129500
      3 C            2.7300     0.8130    -0.1440 c          1 OUI       0.722000
      4 O            2.3950     1.1210    -1.2720 o          1 OUI      -0.746000
      5 CB          -1.9480    -0.3780    -0.1290 c3         1 OUI      -0.048700
      6 CG1         -3.1640     0.5910     0.0430 c3         1 OUI      -0.073400
      7 CG2         -2.1840    -1.7060     0.6450 c3         1 OUI      -0.084100
      8 CD1         -4.5180     0.0550    -0.4740 c3         1 OUI      -0.084100
      9 CM           0.6610    -0.6270     0.1450 c3         1 OUI       0.076000
     10 N2           1.9260    -0.0110     0.5890 ns         1 OUI      -0.564900
     11 H1           0.6540     1.5310    -0.7410 hn         1 OUI       0.411000
     12 H           -0.7780     1.4070    -1.4450 hn         1 OUI       0.411000
     13 HA          -0.6570     0.6080     1.3250 h1         1 OUI       0.027700
     14 HB          -1.8850    -0.6380    -1.1940 hc         1 OUI       0.047700
     15 HG13        -3.2680     0.8590     1.1020 hc         1 OUI       0.044200
     16 HG12        -2.9690     1.5270    -0.4930 hc         1 OUI       0.044200
     17 HG21        -2.2000    -1.5300     1.7270 hc         1 OUI       0.023367
     18 HG22        -3.1320    -2.1750     0.3600 hc         1 OUI       0.023367
     19 HG23        -1.4040    -2.4430     0.4250 hc         1 OUI       0.023367
     20 HD12        -4.4270    -0.3050    -1.5060 hc         1 OUI       0.019700
     21 HD13        -4.8910    -0.7640     0.1520 hc         1 OUI       0.019700
     22 HD11        -5.2700     0.8520    -0.4570 hc         1 OUI       0.019700
     23 HM2          0.5170    -1.5180     0.7680 h1         1 OUI       0.034700
     24 HM3          0.7700    -0.9660    -0.8950 h1         1 OUI       0.034700
     25 HN2          2.2540    -0.2200     1.5210 hn         1 OUI       0.252500
     26 O1           3.7440     1.2010     0.3990 o          1 OUI      -0.746000
@<TRIPOS>BOND
     1     1     2 1   
     2     1    11 1   
     3     1    12 1   
     4     2     5 1   
     5     2     9 1   
     6     2    13 1   
     7     3     4 1   
     8     3    10 1   
     9     3    26 1   
    10     5     6 1   
    11     5     7 1   
    12     5    14 1   
    13     6     8 1   
    14     6    15 1   
    15     6    16 1   
    16     7    17 1   
    17     7    18 1   
    18     7    19 1   
    19     8    20 1   
    20     8    21 1   
    21     8    22 1   
    22     9    10 1   
    23     9    23 1   
    24     9    24 1   
    25    10    25 1   
@<TRIPOS>SUBSTRUCTURE
     1 OUI         1 TEMP              0 ****  ****    0 ROOT
