@<TRIPOS>MOLECULE
OUJ
   47    50     1     0     0
SMALL
abcg2


@<TRIPOS>ATOM
      1 C12        121.2430   247.1820   357.7010 ca         1 OUJ      -0.053000
      2 C15        121.4110   249.9650   357.7700 ca         1 OUJ      -0.123300
      3 C16        120.4630   249.2840   358.5150 ca         1 OUJ      -0.062000
      4 C17        121.4890   251.4690   357.8200 c3         1 OUJ       0.209100
      5 C20        124.3040   249.3000   355.6820 c3         1 OUJ       0.144300
      6 C14        122.2970   249.2200   356.9780 ca         1 OUJ       0.177100
      7 C11        120.3540   247.8890   358.5020 cp         1 OUJ      -0.076000
      8 C22        127.2250   251.1150   354.6670 cc         1 OUJ       0.407300
      9 C24        125.3610   250.3450   355.5220 cd         1 OUJ       0.256300
     10 C25        125.4190   251.5120   356.2180 cc         1 OUJ      -0.223000
     11 C02        116.2570   243.6280   359.7220 ca         1 OUJ       0.620900
     12 C03        115.8100   244.0690   361.0060 ca         1 OUJ      -0.215000
     13 C04        116.3470   245.1850   361.5690 ca         1 OUJ       0.007700
     14 C05        117.3520   245.8900   360.8370 ca         1 OUJ      -0.125000
     15 C06        117.9790   247.0590   361.3070 ca         1 OUJ      -0.076000
     16 C07        118.9380   247.6980   360.5630 ca         1 OUJ      -0.125000
     17 C08        119.3230   247.1980   359.2990 cp         1 OUJ      -0.002000
     18 C09        118.7160   246.0520   358.8290 ca         1 OUJ      -0.100000
     19 C10        117.7310   245.3730   359.5740 ca         1 OUJ       0.327000
     20 C13        122.2040   247.8340   356.9400 ca         1 OUJ      -0.205000
     21 N01        117.1830   244.2560   359.0380 nb         1 OUJ      -0.762000
     22 N02        115.6770   242.5360   359.1660 nv         1 OUJ      -1.069900
     23 N18        122.6820   251.9200   358.5250 n8         1 OUJ      -0.993200
     24 N23        126.3870   250.1300   354.6470 nd         1 OUJ      -0.634000
     25 O19        123.1880   249.9300   356.2650 os         1 OUJ      -0.339100
     26 S21        126.8190   252.3810   355.7530 ss         1 OUJ      -0.041400
     27 H1         121.2040   246.1000   357.6680 ha         1 OUJ       0.118000
     28 H2         119.7690   249.8670   359.1100 ha         1 OUJ       0.112000
     29 H3         121.5270   251.8690   356.8050 h1         1 OUJ       0.036700
     30 H4         120.5560   251.8420   358.2620 h1         1 OUJ       0.036700
     31 H5         124.0530   248.8560   354.7120 h1         1 OUJ       0.054700
     32 H6         124.6830   248.4930   356.3210 h1         1 OUJ       0.054700
     33 H8         124.7300   251.8750   356.9680 h4         1 OUJ       0.193000
     34 H9         115.0450   243.5030   361.5240 ha         1 OUJ       0.117000
     35 H10        117.7110   247.4610   362.2760 ha         1 OUJ       0.110000
     36 H11        119.4190   248.5830   360.9620 ha         1 OUJ       0.113000
     37 H12        118.9670   245.6530   357.8530 ha         1 OUJ       0.130000
     38 H13        122.8660   247.2440   356.3210 ha         1 OUJ       0.121000
     39 H17        116.1450   242.1100   358.3820 hn         1 OUJ       0.478000
     40 H18        115.1610   241.9050   359.7540 hn         1 OUJ       0.478000
     41 H19        122.7270   252.9300   358.4790 hn         1 OUJ       0.391000
     42 H20        122.5970   251.6910   359.5080 hn         1 OUJ       0.391000
     43 C4A        115.9030   245.6650   362.9150 c3         1 OUJ      -0.056800
     44 H7         128.1130   251.1670   354.0530 h5         1 OUJ       0.052100
     45 H14        115.5000   246.6780   362.8600 hc         1 OUJ       0.048367
     46 H15        115.1330   245.0180   363.3290 hc         1 OUJ       0.048367
     47 H16        116.7370   245.6910   363.6180 hc         1 OUJ       0.048367
@<TRIPOS>BOND
     1     1     7 ar  
     2     1    20 ar  
     3     1    27 1   
     4     2     3 ar  
     5     2     4 1   
     6     2     6 ar  
     7     3     7 ar  
     8     3    28 1   
     9     4    23 1   
    10     4    29 1   
    11     4    30 1   
    12     5     9 1   
    13     5    25 1   
    14     5    31 1   
    15     5    32 1   
    16     6    20 ar  
    17     6    25 1   
    18     7    17 1   
    19     8    24 2   
    20     8    26 1   
    21     8    44 1   
    22     9    10 2   
    23     9    24 1   
    24    10    26 1   
    25    10    33 1   
    26    11    12 ar  
    27    11    21 ar  
    28    11    22 1   
    29    12    13 ar  
    30    12    34 1   
    31    13    14 ar  
    32    13    43 1   
    33    14    15 ar  
    34    14    19 ar  
    35    15    16 ar  
    36    15    35 1   
    37    16    17 ar  
    38    16    36 1   
    39    17    18 ar  
    40    18    19 ar  
    41    18    37 1   
    42    19    21 ar  
    43    20    38 1   
    44    22    39 1   
    45    22    40 1   
    46    23    41 1   
    47    23    42 1   
    48    43    45 1   
    49    43    46 1   
    50    43    47 1   
@<TRIPOS>SUBSTRUCTURE
     1 OUJ         1 TEMP              0 ****  ****    0 ROOT
