@<TRIPOS>MOLECULE
OUJ
   47    50     1     0     0
SMALL
No Charge or Current Charge


@<TRIPOS>ATOM
      1 C12        121.4230   247.1890   357.9620 ca         1 OUJ      -0.053000
      2 C15        121.5650   250.0030   357.9820 ca         1 OUJ      -0.123300
      3 C16        120.5330   249.3300   358.6690 ca         1 OUJ      -0.062000
      4 C17        121.5970   251.5280   358.0050 c3         1 OUJ       0.209100
      5 C20        124.5690   249.2460   355.8630 c3         1 OUJ       0.144300
      6 C14        122.5320   249.2550   357.2730 ca         1 OUJ       0.177100
      7 C11        120.4410   247.9170   358.6740 cp         1 OUJ      -0.076000
      8 C22        126.7630   251.1130   353.6190 cc         1 OUJ       0.407300
      9 C24        125.5120   250.2620   355.2520 cd         1 OUJ       0.256300
     10 C25        126.0160   251.3670   355.9000 cc         1 OUJ      -0.223000
     11 C02        116.2410   243.6130   359.6750 ca         1 OUJ       0.620900
     12 C03        115.6970   244.0320   360.8870 ca         1 OUJ      -0.215000
     13 C04        116.2020   245.1990   361.4810 ca         1 OUJ       0.007700
     14 C05        117.2440   245.8790   360.8030 ca         1 OUJ      -0.125000
     15 C06        117.8130   247.0620   361.3240 ca         1 OUJ      -0.076000
     16 C07        118.8430   247.7170   360.6340 ca         1 OUJ      -0.125000
     17 C08        119.3400   247.2160   359.4090 cp         1 OUJ      -0.002000
     18 C09        118.7590   246.0290   358.9010 ca         1 OUJ      -0.100000
     19 C10        117.7240   245.3540   359.5720 ca         1 OUJ       0.327000
     20 C13        122.4550   247.8460   357.2700 ca         1 OUJ      -0.205000
     21 N01        117.2150   244.2250   359.0240 nb         1 OUJ      -0.762000
     22 N02        115.8490   242.5180   359.0240 nv         1 OUJ      -1.069900
     23 N18        122.1200   252.0410   359.2860 n8         1 OUJ      -0.993200
     24 N23        125.9460   250.1150   353.9380 nd         1 OUJ      -0.634000
     25 O19        123.5310   249.9280   356.5950 os         1 OUJ      -0.339100
     26 S21        127.0690   252.2910   354.8680 ss         1 OUJ      -0.041400
     27 H1         121.3950   246.1020   357.9540 ha         1 OUJ       0.118000
     28 H2         119.7820   249.9160   359.1940 ha         1 OUJ       0.112000
     29 H3         122.2150   251.9220   357.1870 h1         1 OUJ       0.036700
     30 H4         120.5770   251.9140   357.8640 h1         1 OUJ       0.036700
     31 H5         124.1360   248.6310   355.0630 h1         1 OUJ       0.054700
     32 H6         125.1460   248.5910   356.5290 h1         1 OUJ       0.054700
     33 H8         125.8280   251.6930   356.9150 h4         1 OUJ       0.193000
     34 H9         114.8990   243.4640   361.3540 ha         1 OUJ       0.117000
     35 H10        117.4690   247.4860   362.2640 ha         1 OUJ       0.110000
     36 H11        119.2720   248.6190   361.0650 ha         1 OUJ       0.113000
     37 H12        119.1080   245.6260   357.9550 ha         1 OUJ       0.130000
     38 H13        123.1830   247.2410   356.7400 ha         1 OUJ       0.121000
     39 H17        116.4890   242.2160   358.3000 hn         1 OUJ       0.478000
     40 H18        115.4040   241.7860   359.5660 hn         1 OUJ       0.478000
     41 H19        122.0320   253.0630   359.2950 hn         1 OUJ       0.391000
     42 H20        121.4970   251.7340   360.0410 hn         1 OUJ       0.391000
     43 C4A        115.6220   245.6830   362.8070 c3         1 OUJ      -0.056800
     44 H7         127.2380   251.2330   352.6530 h5         1 OUJ       0.052100
     45 H14        115.1920   246.6860   362.7060 hc         1 OUJ       0.048367
     46 H15        114.8260   245.0210   363.1680 hc         1 OUJ       0.048367
     47 H16        116.3940   245.7190   363.5850 hc         1 OUJ       0.048367
@<TRIPOS>BOND
     1     1     7 ar  
     2     1    20 ar  
     3     1    27 1   
     4     2     3 ar  
     5     2     4 1   
     6     2     6 ar  
     7     3     7 ar  
     8     3    28 1   
     9     4    23 1   
    10     4    29 1   
    11     4    30 1   
    12     5     9 1   
    13     5    25 1   
    14     5    31 1   
    15     5    32 1   
    16     6    20 ar  
    17     6    25 1   
    18     7    17 1   
    19     8    24 2   
    20     8    26 1   
    21     8    44 1   
    22     9    10 2   
    23     9    24 1   
    24    10    26 1   
    25    10    33 1   
    26    11    12 ar  
    27    11    21 ar  
    28    11    22 1   
    29    12    13 ar  
    30    12    34 1   
    31    13    14 ar  
    32    13    43 1   
    33    14    15 ar  
    34    14    19 ar  
    35    15    16 ar  
    36    15    35 1   
    37    16    17 ar  
    38    16    36 1   
    39    17    18 ar  
    40    18    19 ar  
    41    18    37 1   
    42    19    21 ar  
    43    20    38 1   
    44    22    39 1   
    45    22    40 1   
    46    23    41 1   
    47    23    42 1   
    48    43    45 1   
    49    43    46 1   
    50    43    47 1   
@<TRIPOS>SUBSTRUCTURE
     1 OUJ         1 TEMP              0 ****  ****    0 ROOT
