@<TRIPOS>MOLECULE
OUK
   29    28     1     0     0
SMALL
No Charge or Current Charge


@<TRIPOS>ATOM
      1 N            0.3780     1.7050    -0.6300 n8         1 OUK      -0.973200
      2 CA           0.3250     0.4100     0.0930 c3         1 OUK       0.139500
      3 C            4.0470    -0.3580     0.3100 c          1 OUK       0.723000
      4 O            4.1400    -1.5680     0.2200 o          1 OUK      -0.739000
      5 CB          -0.9840    -0.3450    -0.2470 c3         1 OUK      -0.117400
      6 CG          -2.2830     0.3880     0.1740 c3         1 OUK      -0.073400
      7 CD          -3.5560    -0.4380    -0.1090 c3         1 OUK      -0.106400
      8 CE          -4.8390     0.2940     0.3130 c3         1 OUK       0.096600
      9 NZ          -6.0540    -0.5450     0.0210 nz         1 OUK      -0.974000
     10 CM           1.5830    -0.4640    -0.1900 c3         1 OUK       0.133000
     11 N2           2.8350     0.2320     0.1200 ns         1 OUK      -0.543900
     12 O1           4.9770     0.3830     0.5590 o          1 OUK      -0.739000
     13 H2           0.4050     1.5200    -1.6380 hn         1 OUK       0.375500
     14 H1          -0.5110     2.1960    -0.4940 hn         1 OUK       0.375500
     15 HA           0.3130     0.6290     1.1710 h1         1 OUK       0.065700
     16 HB2         -1.0160    -0.5540    -1.3240 hc         1 OUK       0.050700
     17 HB3         -0.9600    -1.3200     0.2560 hc         1 OUK       0.050700
     18 HG2         -2.2350     0.6190     1.2460 hc         1 OUK       0.048200
     19 HG3         -2.3580     1.3450    -0.3570 hc         1 OUK       0.048200
     20 HD2         -3.6070    -0.6690    -1.1800 hc         1 OUK       0.064700
     21 HD3         -3.4940    -1.3940     0.4260 hc         1 OUK       0.064700
     22 HE2         -4.7990     0.5140     1.3850 hx         1 OUK       0.103700
     23 HE3         -4.9140     1.2430    -0.2310 hx         1 OUK       0.103700
     24 HZ3         -6.0530    -1.4500     0.5180 hn         1 OUK       0.508667
     25 HZ1         -6.9380    -0.0850     0.2910 hn         1 OUK       0.508667
     26 HZ2         -6.1600    -0.7750    -0.9800 hn         1 OUK       0.508667
     27 HM3          1.5250    -1.3780     0.4160 h1         1 OUK       0.015700
     28 HM2          1.6020    -0.7560    -1.2490 h1         1 OUK       0.015700
     29 HN2          2.8090     1.2400     0.1890 hn         1 OUK       0.266500
@<TRIPOS>BOND
     1     1     2 1   
     2     1    13 1   
     3     1    14 1   
     4     2     5 1   
     5     2    10 1   
     6     2    15 1   
     7     3     4 1   
     8     3    11 1   
     9     3    12 1   
    10     5     6 1   
    11     5    16 1   
    12     5    17 1   
    13     6     7 1   
    14     6    18 1   
    15     6    19 1   
    16     7     8 1   
    17     7    20 1   
    18     7    21 1   
    19     8     9 1   
    20     8    22 1   
    21     8    23 1   
    22     9    24 1   
    23     9    25 1   
    24     9    26 1   
    25    10    11 1   
    26    10    27 1   
    27    10    28 1   
    28    11    29 1   
@<TRIPOS>SUBSTRUCTURE
     1 OUK         1 TEMP              0 ****  ****    0 ROOT
