@<TRIPOS>MOLECULE
OUK
   29    28     1     0     0
SMALL
abcg2


@<TRIPOS>ATOM
      1 N            0.3850     1.6720    -0.4140 n8         1 OUK      -0.973200
      2 CA           0.2920     0.3680     0.2350 c3         1 OUK       0.139500
      3 C            3.9960    -0.3060     0.0520 c          1 OUK       0.723000
      4 O            4.0550    -1.5380    -0.1550 o          1 OUK      -0.739000
      5 CB          -0.9780    -0.4240    -0.0920 c3         1 OUK      -0.117400
      6 CG          -2.2660     0.3430     0.1810 c3         1 OUK      -0.073400
      7 CD          -3.5100    -0.5030    -0.0640 c3         1 OUK      -0.106400
      8 CE          -4.7670     0.3120     0.1560 c3         1 OUK       0.096600
      9 NZ          -5.9890    -0.4980    -0.0940 nz         1 OUK      -0.974000
     10 CM           1.5300    -0.4530    -0.1150 c3         1 OUK       0.133000
     11 N2           2.7260     0.2440     0.2780 ns         1 OUK      -0.543900
     12 O1           4.9600     0.4920     0.1120 o          1 OUK      -0.739000
     13 H2           0.1900     1.5750    -1.4040 hn         1 OUK       0.375500
     14 H1          -0.3190     2.3000    -0.0490 hn         1 OUK       0.375500
     15 HA           0.3070     0.5520     1.3150 h1         1 OUK       0.065700
     16 HB2         -0.9550    -0.7280    -1.1460 hc         1 OUK       0.050700
     17 HB3         -0.9750    -1.3470     0.4960 hc         1 OUK       0.050700
     18 HG2         -2.2670     0.7040     1.2150 hc         1 OUK       0.048200
     19 HG3         -2.3090     1.2300    -0.4580 hc         1 OUK       0.048200
     20 HD2         -3.4970    -0.8890    -1.0870 hc         1 OUK       0.064700
     21 HD3         -3.5090    -1.3680     0.6060 hc         1 OUK       0.064700
     22 HE2         -4.8380     0.6780     1.1780 hx         1 OUK       0.103700
     23 HE3         -4.8160     1.1640    -0.5200 hx         1 OUK       0.103700
     24 HZ3         -6.0560    -1.2930     0.5410 hn         1 OUK       0.508667
     25 HZ1         -6.8370     0.0540     0.0300 hn         1 OUK       0.508667
     26 HZ2         -6.0120    -0.8680    -1.0440 hn         1 OUK       0.508667
     27 HM3          1.4710    -1.4150     0.3990 h1         1 OUK       0.015700
     28 HM2          1.5020    -0.6790    -1.1940 h1         1 OUK       0.015700
     29 HN2          2.6630     1.2390     0.1220 hn         1 OUK       0.266500
@<TRIPOS>BOND
     1     1     2 1   
     2     1    13 1   
     3     1    14 1   
     4     2     5 1   
     5     2    10 1   
     6     2    15 1   
     7     3     4 1   
     8     3    11 1   
     9     3    12 1   
    10     5     6 1   
    11     5    16 1   
    12     5    17 1   
    13     6     7 1   
    14     6    18 1   
    15     6    19 1   
    16     7     8 1   
    17     7    20 1   
    18     7    21 1   
    19     8     9 1   
    20     8    22 1   
    21     8    23 1   
    22     9    24 1   
    23     9    25 1   
    24     9    26 1   
    25    10    11 1   
    26    10    27 1   
    27    10    28 1   
    28    11    29 1   
@<TRIPOS>SUBSTRUCTURE
     1 OUK         1 TEMP              0 ****  ****    0 ROOT
