@<TRIPOS>MOLECULE
OUL
   31    32     1     0     0
SMALL
bcc


@<TRIPOS>ATOM
      1 CAF          1.2840     0.0230    -0.4910 ca         1 OUL      -0.170250
      2 CAE          2.5420    -0.4920    -0.7520 ca         1 OUL      -0.066500
      3 CAD          3.6470    -0.1230     0.0120 ca         1 OUL      -0.171100
      4 CAB          4.9730    -0.7220    -0.3250 c          1 OUL       0.686200
      5 OAC          5.0520    -1.7420    -0.9980 o          1 OUL      -0.603600
      6 NAA          6.0560    -0.0850     0.1470 nt         1 OUL      -0.670500
      7 CAS          3.4570     0.7650     1.0690 ca         1 OUL      -0.066500
      8 CAR          2.2030     1.2750     1.3540 ca         1 OUL      -0.170250
      9 CAG          1.1170     0.9070     0.5690 ca         1 OUL       0.138600
     10 OAH         -0.0760     1.4890     0.8680 os         1 OUL      -0.255200
     11 CAI         -1.2470     0.8680     0.5350 ca         1 OUL       0.138600
     12 CAJ         -1.5230    -0.4280     0.9540 ca         1 OUL      -0.170250
     13 CAK         -2.7420    -0.9970     0.6330 ca         1 OUL      -0.066500
     14 CAL         -3.7030    -0.2820    -0.0800 ca         1 OUL      -0.171100
     15 CAO         -4.9950    -0.9620    -0.4010 c          1 OUL       0.686200
     16 OAQ         -5.0770    -2.1840    -0.4030 o          1 OUL      -0.603600
     17 NAP         -6.0350    -0.1660    -0.6840 nt         1 OUL      -0.670500
     18 CAM         -3.4070     1.0170    -0.4870 ca         1 OUL      -0.066500
     19 CAN         -2.1810     1.5910    -0.1900 ca         1 OUL      -0.170250
     20 H1           0.4500    -0.2640    -1.1180 ha         1 OUL       0.151250
     21 H2           2.6640    -1.1820    -1.5760 ha         1 OUL       0.145250
     22 H3           6.0120     0.8160     0.5900 hn         1 OUL       0.314500
     23 H4           6.9730    -0.4470    -0.0580 hn         1 OUL       0.314500
     24 H5           4.2790     1.0550     1.7110 ha         1 OUL       0.145250
     25 H6           2.0650     1.9550     2.1840 ha         1 OUL       0.151250
     26 H7          -0.7990    -0.9900     1.5310 ha         1 OUL       0.151250
     27 H8          -2.9530    -2.0070     0.9590 ha         1 OUL       0.145250
     28 H9          -6.0120     0.8300    -0.5520 hn         1 OUL       0.314500
     29 H10         -6.9330    -0.5740    -0.8880 hn         1 OUL       0.314500
     30 H11         -4.1120     1.5950    -1.0700 ha         1 OUL       0.145250
     31 H12         -1.9520     2.5960    -0.5210 ha         1 OUL       0.151250
@<TRIPOS>BOND
     1     1     2 ar  
     2     1     9 ar  
     3     1    20 1   
     4     2     3 ar  
     5     2    21 1   
     6     3     4 1   
     7     3     7 ar  
     8     4     5 2   
     9     4     6 1   
    10     6    22 1   
    11     6    23 1   
    12     7     8 ar  
    13     7    24 1   
    14     8     9 ar  
    15     8    25 1   
    16     9    10 1   
    17    10    11 1   
    18    11    12 ar  
    19    11    19 ar  
    20    12    13 ar  
    21    12    26 1   
    22    13    14 ar  
    23    13    27 1   
    24    14    15 1   
    25    14    18 ar  
    26    15    16 2   
    27    15    17 1   
    28    17    28 1   
    29    17    29 1   
    30    18    19 ar  
    31    18    30 1   
    32    19    31 1   
@<TRIPOS>SUBSTRUCTURE
     1 OUL         1 TEMP              0 ****  ****    0 ROOT
