@<TRIPOS>MOLECULE
OUL
   31    32     1     0     0
SMALL
No Charge or Current Charge


@<TRIPOS>ATOM
      1 CAF          1.3570     0.1990    -0.7140 ca         1 OUL      -0.152250
      2 CAE          2.6200    -0.3780    -0.9300 ca         1 OUL      -0.048500
      3 CAD          3.7030    -0.0890    -0.0680 ca         1 OUL      -0.171100
      4 CAB          5.0510    -0.7270    -0.3270 c          1 OUL       0.619200
      5 OAC          5.2500    -1.4900    -1.2580 o          1 OUL      -0.603600
      6 NAA          6.0710    -0.4370     0.5080 nt         1 OUL      -0.603500
      7 CAS          3.4890     0.7990     1.0150 ca         1 OUL      -0.048500
      8 CAR          2.2230     1.3740     1.2260 ca         1 OUL      -0.152250
      9 CAG          1.1550     1.0680     0.3720 ca         1 OUL       0.138600
     10 OAH         -0.0690     1.6570     0.5970 os         1 OUL      -0.255200
     11 CAI         -1.2630     0.9980     0.4080 ca         1 OUL       0.138600
     12 CAJ         -1.4110    -0.3560     0.7580 ca         1 OUL      -0.152250
     13 CAK         -2.6450    -1.0020     0.5680 ca         1 OUL      -0.048500
     14 CAL         -3.7520    -0.3030     0.0330 ca         1 OUL      -0.171100
     15 CAO         -5.0660    -1.0280    -0.1590 c          1 OUL       0.619200
     16 OAQ         -5.2180    -2.2040     0.1290 o          1 OUL      -0.603600
     17 NAP         -6.1100    -0.3410    -0.6710 nt         1 OUL      -0.603500
     18 CAM         -3.5920     1.0640    -0.3020 ca         1 OUL      -0.048500
     19 CAN         -2.3560     1.7060    -0.1090 ca         1 OUL      -0.152250
     20 H1           0.5400    -0.0270    -1.3950 ha         1 OUL       0.133250
     21 H2           2.7550    -1.0510    -1.7750 ha         1 OUL       0.127250
     22 H3           5.9320     0.1900     1.2850 hn         1 OUL       0.314500
     23 H4           6.9730    -0.8570     0.3440 hn         1 OUL       0.314500
     24 H5           4.2930     1.0560     1.7020 ha         1 OUL       0.127250
     25 H6           2.0690     2.0560     2.0590 ha         1 OUL       0.133250
     26 H7          -0.5750    -0.9080     1.1800 ha         1 OUL       0.133250
     27 H8          -2.7380    -2.0520     0.8410 ha         1 OUL       0.127250
     28 H9          -6.0100     0.6310    -0.9170 hn         1 OUL       0.314500
     29 H10         -6.9910    -0.8150    -0.8030 hn         1 OUL       0.314500
     30 H11         -4.4160     1.6450    -0.7100 ha         1 OUL       0.127250
     31 H12         -2.2430     2.7560    -0.3670 ha         1 OUL       0.133250
@<TRIPOS>BOND
     1     1     2 ar  
     2     1     9 ar  
     3     1    20 1   
     4     2     3 ar  
     5     2    21 1   
     6     3     4 1   
     7     3     7 ar  
     8     4     5 2   
     9     4     6 1   
    10     6    22 1   
    11     6    23 1   
    12     7     8 ar  
    13     7    24 1   
    14     8     9 ar  
    15     8    25 1   
    16     9    10 1   
    17    10    11 1   
    18    11    12 ar  
    19    11    19 ar  
    20    12    13 ar  
    21    12    26 1   
    22    13    14 ar  
    23    13    27 1   
    24    14    15 1   
    25    14    18 ar  
    26    15    16 2   
    27    15    17 1   
    28    17    28 1   
    29    17    29 1   
    30    18    19 ar  
    31    18    30 1   
    32    19    31 1   
@<TRIPOS>SUBSTRUCTURE
     1 OUL         1 TEMP              0 ****  ****    0 ROOT
