@<TRIPOS>MOLECULE
OUM
   52    55     1     0     0
SMALL
No Charge or Current Charge


@<TRIPOS>ATOM
      1 C10        117.6580   244.1650   359.8000 ca         1 OUM       0.324000
      2 C22        120.2340   247.6460   357.4020 ca         1 OUM      -0.062000
      3 C24        122.6330   247.4620   356.9720 ca         1 OUM       0.138100
      4 C23        121.3950   248.1090   356.7620 ca         1 OUM      -0.200000
      5 C25        122.6950   246.3440   357.8340 ca         1 OUM      -0.109300
      6 C02        116.4180   242.4010   360.5690 ca         1 OUM       0.616900
      7 C03        115.3930   243.2150   361.0460 ca         1 OUM      -0.214000
      8 C04        115.5090   244.6040   360.8850 ca         1 OUM       0.006700
      9 C05        116.6740   245.0920   360.2430 ca         1 OUM      -0.123000
     10 C06        116.8760   246.4740   360.0340 ca         1 OUM      -0.077000
     11 C07        118.0380   246.9330   359.3960 ca         1 OUM      -0.124000
     12 C08        119.0320   246.0340   358.9480 cp         1 OUM      -0.007000
     13 C09        118.8140   244.6520   359.1650 ca         1 OUM      -0.095000
     14 C11        114.3990   245.5190   361.3950 c3         1 OUM      -0.055800
     15 C21        120.2720   246.5270   358.2670 cp         1 OUM      -0.071000
     16 C26        121.5220   245.8900   358.4680 ca         1 OUM      -0.048000
     17 C30        123.8200   249.0200   355.4620 c3         1 OUM       0.207900
     18 C31        125.2490   249.2070   354.9680 ca         1 OUM      -0.067300
     19 C32        126.1330   250.0610   355.6560 ca         1 OUM      -0.096500
     20 C33        127.4520   250.2330   355.2020 ca         1 OUM      -0.074000
     21 C34        127.9000   249.5510   354.0540 ca         1 OUM      -0.013000
     22 C35        127.0190   248.6950   353.3660 ca         1 OUM      -0.074000
     23 C36        125.6990   248.5240   353.8220 ca         1 OUM      -0.096500
     24 C37        129.2490   249.7260   353.5890 cg         1 OUM       0.322000
     25 N01        117.5160   242.8300   359.9710 nb         1 OUM      -0.757000
     26 N02        116.4200   241.0710   360.6740 nv         1 OUM      -1.065900
     27 N28        124.5710   245.9500   359.4080 n8         1 OUM      -1.000200
     28 N38        130.3420   249.8760   353.2060 n1         1 OUM      -0.449000
     29 O29        123.7930   247.8950   356.3570 os         1 OUM      -0.349100
     30 H1         119.2910   248.1530   357.2120 ha         1 OUM       0.115000
     31 H2         121.3110   248.9690   356.1050 ha         1 OUM       0.115000
     32 H3         114.5260   242.7760   361.5290 ha         1 OUM       0.117000
     33 H4         116.1440   247.2070   360.3640 ha         1 OUM       0.110000
     34 H5         118.1740   248.0030   359.2610 ha         1 OUM       0.113000
     35 H6         119.5510   243.9340   358.8190 ha         1 OUM       0.135000
     36 H7         113.9620   246.1030   360.5760 hc         1 OUM       0.048033
     37 H8         113.5860   244.9490   361.8600 hc         1 OUM       0.048033
     38 H9         114.7800   246.2180   362.1480 hc         1 OUM       0.048033
     39 H10        121.5870   245.0380   359.1410 ha         1 OUM       0.139000
     40 H11        123.8260   244.5230   358.0570 h1         1 OUM       0.041700
     41 H12        124.7460   245.8420   357.3120 h1         1 OUM       0.041700
     42 H13        123.4870   249.9320   355.9750 h1         1 OUM       0.045700
     43 H14        123.1580   248.8480   354.6030 h1         1 OUM       0.045700
     44 H15        125.7980   250.5910   356.5460 ha         1 OUM       0.124500
     45 H16        128.1250   250.8960   355.7430 ha         1 OUM       0.127500
     46 H17        127.3540   248.1610   352.4780 ha         1 OUM       0.127500
     47 H18        125.0270   247.8580   353.2840 ha         1 OUM       0.124500
     48 H19        117.3220   240.6430   360.5060 hn         1 OUM       0.475500
     49 H20        115.8530   240.6590   361.4060 hn         1 OUM       0.475500
     50 H21        125.4860   245.4950   359.5050 hn         1 OUM       0.395500
     51 H22        124.7970   246.9520   359.4100 hn         1 OUM       0.395500
     52 C27        124.0060   245.6060   358.0890 c3         1 OUM       0.206100
@<TRIPOS>BOND
     1     1     9 ar  
     2     1    13 ar  
     3     1    25 ar  
     4     2     4 ar  
     5     2    15 ar  
     6     2    30 1   
     7     3     4 ar  
     8     3     5 ar  
     9     3    29 1   
    10     4    31 1   
    11     5    16 ar  
    12     5    52 1   
    13     6     7 ar  
    14     6    25 ar  
    15     6    26 1   
    16     7     8 ar  
    17     7    32 1   
    18     8     9 ar  
    19     8    14 1   
    20     9    10 ar  
    21    10    11 ar  
    22    10    33 1   
    23    11    12 ar  
    24    11    34 1   
    25    12    13 ar  
    26    12    15 1   
    27    13    35 1   
    28    14    36 1   
    29    14    37 1   
    30    14    38 1   
    31    15    16 ar  
    32    16    39 1   
    33    17    18 1   
    34    17    29 1   
    35    17    42 1   
    36    17    43 1   
    37    18    19 ar  
    38    18    23 ar  
    39    19    20 ar  
    40    19    44 1   
    41    20    21 ar  
    42    20    45 1   
    43    21    22 ar  
    44    21    24 1   
    45    22    23 ar  
    46    22    46 1   
    47    23    47 1   
    48    24    28 3   
    49    26    48 1   
    50    26    49 1   
    51    27    50 1   
    52    27    51 1   
    53    27    52 1   
    54    40    52 1   
    55    41    52 1   
@<TRIPOS>SUBSTRUCTURE
     1 OUM         1 TEMP              0 ****  ****    0 ROOT
