@<TRIPOS>MOLECULE
OUM
   52    55     1     0     0
SMALL
abcg2


@<TRIPOS>ATOM
      1 C10        117.8260   244.2830   359.9260 ca         1 OUM       0.324000
      2 C22        120.2410   247.5140   357.1870 ca         1 OUM      -0.062000
      3 C24        122.6230   247.4370   356.8720 ca         1 OUM       0.138100
      4 C23        121.3810   247.9540   356.5270 ca         1 OUM      -0.200000
      5 C25        122.7350   246.4750   357.8880 ca         1 OUM      -0.109300
      6 C02        116.7100   242.5260   360.8790 ca         1 OUM       0.616900
      7 C03        115.5840   243.3550   361.1720 ca         1 OUM      -0.214000
      8 C04        115.5990   244.6720   360.8320 ca         1 OUM       0.006700
      9 C05        116.7610   245.1830   360.1750 ca         1 OUM      -0.123000
     10 C06        116.8990   246.5230   359.7690 ca         1 OUM      -0.077000
     11 C07        118.0340   246.9600   359.1370 ca         1 OUM      -0.124000
     12 C08        119.1020   246.0730   358.8750 cp         1 OUM      -0.007000
     13 C09        118.9810   244.7580   359.2720 ca         1 OUM      -0.095000
     14 C11        114.4330   245.5610   361.1320 c3         1 OUM      -0.055800
     15 C21        120.3160   246.5530   358.1880 cp         1 OUM      -0.071000
     16 C26        121.5790   246.0490   358.5170 ca         1 OUM      -0.048000
     17 C30        123.7660   248.8120   355.2990 c3         1 OUM       0.207900
     18 C31        125.1820   249.0780   354.8790 ca         1 OUM      -0.067300
     19 C32        126.1940   249.2110   355.8290 ca         1 OUM      -0.096500
     20 C33        127.4900   249.4880   355.4400 ca         1 OUM      -0.074000
     21 C34        127.7870   249.6390   354.0840 ca         1 OUM      -0.013000
     22 C35        126.7830   249.5120   353.1270 ca         1 OUM      -0.074000
     23 C36        125.4900   249.2290   353.5310 ca         1 OUM      -0.096500
     24 C37        129.1250   249.9240   353.6780 cg         1 OUM       0.322000
     25 N01        117.7870   242.9750   360.2820 nb         1 OUM      -0.757000
     26 N02        116.6520   241.2070   361.1960 nv         1 OUM      -1.065900
     27 N28        124.0480   245.0450   359.4040 n8         1 OUM      -1.000200
     28 N38        130.2060   250.1540   353.3530 n1         1 OUM      -0.449000
     29 O29        123.7820   247.7960   356.2780 os         1 OUM      -0.349100
     30 H1         119.2820   247.9200   356.8890 ha         1 OUM       0.115000
     31 H2         121.2730   248.6890   355.7410 ha         1 OUM       0.115000
     32 H3         114.7220   242.9230   361.6650 ha         1 OUM       0.117000
     33 H4         116.1010   247.2290   359.9630 ha         1 OUM       0.110000
     34 H5         118.1190   248.0020   358.8560 ha         1 OUM       0.113000
     35 H6         119.7690   244.0430   359.0700 ha         1 OUM       0.135000
     36 H7         114.0120   245.9800   360.2170 hc         1 OUM       0.048033
     37 H8         113.6450   245.0150   361.6460 hc         1 OUM       0.048033
     38 H9         114.7280   246.4010   361.7620 hc         1 OUM       0.048033
     39 H10        121.6720   245.3110   359.3040 ha         1 OUM       0.139000
     40 H11        124.5110   245.3980   357.4180 h1         1 OUM       0.041700
     41 H12        124.7740   246.7990   358.4220 h1         1 OUM       0.041700
     42 H13        123.3250   249.7320   355.7040 h1         1 OUM       0.045700
     43 H14        123.1650   248.5160   354.4330 h1         1 OUM       0.045700
     44 H15        125.9740   249.1000   356.8830 ha         1 OUM       0.124500
     45 H16        128.2710   249.5890   356.1810 ha         1 OUM       0.127500
     46 H17        127.0140   249.6250   352.0760 ha         1 OUM       0.127500
     47 H18        124.7140   249.1220   352.7840 ha         1 OUM       0.124500
     48 H19        117.5200   240.6960   361.1990 hn         1 OUM       0.475500
     49 H20        115.9810   240.9070   361.8820 hn         1 OUM       0.475500
     50 H21        124.9490   244.5970   359.5020 hn         1 OUM       0.395500
     51 H22        123.9090   245.5750   360.2560 hn         1 OUM       0.395500
     52 C27        124.0970   245.9480   358.2690 c3         1 OUM       0.206100
@<TRIPOS>BOND
     1     1     9 ar  
     2     1    13 ar  
     3     1    25 ar  
     4     2     4 ar  
     5     2    15 ar  
     6     2    30 1   
     7     3     4 ar  
     8     3     5 ar  
     9     3    29 1   
    10     4    31 1   
    11     5    16 ar  
    12     5    52 1   
    13     6     7 ar  
    14     6    25 ar  
    15     6    26 1   
    16     7     8 ar  
    17     7    32 1   
    18     8     9 ar  
    19     8    14 1   
    20     9    10 ar  
    21    10    11 ar  
    22    10    33 1   
    23    11    12 ar  
    24    11    34 1   
    25    12    13 ar  
    26    12    15 1   
    27    13    35 1   
    28    14    36 1   
    29    14    37 1   
    30    14    38 1   
    31    15    16 ar  
    32    16    39 1   
    33    17    18 1   
    34    17    29 1   
    35    17    42 1   
    36    17    43 1   
    37    18    19 ar  
    38    18    23 ar  
    39    19    20 ar  
    40    19    44 1   
    41    20    21 ar  
    42    20    45 1   
    43    21    22 ar  
    44    21    24 1   
    45    22    23 ar  
    46    22    46 1   
    47    23    47 1   
    48    24    28 3   
    49    26    48 1   
    50    26    49 1   
    51    27    50 1   
    52    27    51 1   
    53    27    52 1   
    54    40    52 1   
    55    41    52 1   
@<TRIPOS>SUBSTRUCTURE
     1 OUM         1 TEMP              0 ****  ****    0 ROOT
