@<TRIPOS>MOLECULE
OUO
   19    18     1     0     0
SMALL
No Charge or Current Charge


@<TRIPOS>ATOM
      1 CA          41.3560    22.8580     7.4930 c3         1 OUO      -0.186700
      2 C           41.2970    23.1650     9.0090 c          1 OUO       0.722000
      3 OXT         42.0610    22.5930     9.7730 o          1 OUO      -0.753000
      4 CB          41.1290    21.3550     7.1550 c3         1 OUO      -0.022400
      5 CG          39.7460    20.8100     7.5930 c3         1 OUO      -0.186400
      6 CD          39.5870    19.3460     7.1450 c          1 OUO       0.708000
      7 OE1         39.1250    19.1260     6.0350 o          1 OUO      -0.775500
      8 OE2         39.9660    18.4640     7.8990 o          1 OUO      -0.775500
      9 O           40.4490    23.9570     9.3960 o          1 OUO      -0.753000
     10 C02         42.6310    23.4540     6.8480 c3         1 OUO       0.182600
     11 O01         43.8010    22.6910     7.1520 oh         1 OUO      -0.642000
     12 H1          40.5320    23.4150     7.0280 hc         1 OUO       0.021700
     13 H3          41.9150    20.7480     7.6210 hc         1 OUO       0.026200
     14 H4          41.2310    21.2200     6.0710 hc         1 OUO       0.026200
     15 H5          39.0010    21.4440     7.0940 hc         1 OUO       0.024200
     16 H6          39.7210    20.8780     8.6870 hc         1 OUO       0.024200
     17 H8          42.7560    24.4900     7.1880 h1         1 OUO      -0.011300
     18 H9          42.4910    23.4820     5.7600 h1         1 OUO      -0.011300
     19 H10         44.5510    23.1370     6.7050 ho         1 OUO       0.383000
@<TRIPOS>BOND
     1     1     2 1   
     2     1     4 1   
     3     1    10 1   
     4     1    12 1   
     5     2     3 1   
     6     2     9 1   
     7     4     5 1   
     8     4    13 1   
     9     4    14 1   
    10     5     6 1   
    11     5    15 1   
    12     5    16 1   
    13     6     7 1   
    14     6     8 1   
    15    10    11 1   
    16    10    17 1   
    17    10    18 1   
    18    11    19 1   
@<TRIPOS>SUBSTRUCTURE
     1 OUO         1 TEMP              0 ****  ****    0 ROOT
