@<TRIPOS>MOLECULE
OUO
   19    18     1     0     0
SMALL
abcg2


@<TRIPOS>ATOM
      1 CA          41.3460    22.8370     7.4600 c3         1 OUO      -0.186700
      2 C           41.2260    23.2300     8.9580 c          1 OUO       0.722000
      3 OXT         41.3710    22.3380     9.8310 o          1 OUO      -0.753000
      4 CB          41.2140    21.3410     7.1670 c3         1 OUO      -0.022400
      5 CG          39.8100    20.8020     7.4140 c3         1 OUO      -0.186400
      6 CD          39.5870    19.3050     7.1280 c          1 OUO       0.708000
      7 OE1         38.4100    18.8820     7.2980 o          1 OUO      -0.775500
      8 OE2         40.5660    18.6080     6.7550 o          1 OUO      -0.775500
      9 O           41.0000    24.4490     9.1860 o          1 OUO      -0.753000
     10 C02         42.6280    23.4240     6.8790 c3         1 OUO       0.182600
     11 O01         43.7680    22.8310     7.5200 oh         1 OUO      -0.642000
     12 H1          40.5340    23.3650     6.9470 hc         1 OUO       0.021700
     13 H3          41.9310    20.7860     7.7710 hc         1 OUO       0.026200
     14 H4          41.4850    21.1660     6.1210 hc         1 OUO       0.026200
     15 H5          39.0840    21.3570     6.8100 hc         1 OUO       0.024200
     16 H6          39.5250    20.9770     8.4550 hc         1 OUO       0.024200
     17 H8          42.6350    24.5070     7.0300 h1         1 OUO      -0.011300
     18 H9          42.6640    23.2240     5.8010 h1         1 OUO      -0.011300
     19 H10         44.5620    23.2050     7.1210 ho         1 OUO       0.383000
@<TRIPOS>BOND
     1     1     2 1   
     2     1     4 1   
     3     1    10 1   
     4     1    12 1   
     5     2     3 1   
     6     2     9 1   
     7     4     5 1   
     8     4    13 1   
     9     4    14 1   
    10     5     6 1   
    11     5    15 1   
    12     5    16 1   
    13     6     7 1   
    14     6     8 1   
    15    10    11 1   
    16    10    17 1   
    17    10    18 1   
    18    11    19 1   
@<TRIPOS>SUBSTRUCTURE
     1 OUO         1 TEMP              0 ****  ****    0 ROOT
