@<TRIPOS>MOLECULE
OUP
   51    54     1     0     0
SMALL
bcc


@<TRIPOS>ATOM
      1 C02        116.7340   246.9920   361.6500 ca         1 OUP       0.685200
      2 C03        115.9830   247.6490   362.6730 ca         1 OUP      -0.297300
      3 C04        116.1310   248.9860   362.8780 ca         1 OUP       0.007700
      4 C05        117.0460   249.6950   362.0390 ca         1 OUP      -0.188300
      5 C06        117.2840   251.0790   362.1440 ca         1 OUP      -0.094000
      6 C07        118.1730   251.7110   361.3140 ca         1 OUP      -0.141000
      7 C08        118.8800   250.9870   360.3280 cp         1 OUP      -0.008000
      8 C09        118.6570   249.6310   360.2170 ca         1 OUP      -0.180300
      9 C10        117.7430   248.9570   361.0530 ca         1 OUP       0.456600
     10 C11        119.8360   251.6730   359.4350 cp         1 OUP      -0.047000
     11 C12        120.0340   251.2420   358.1240 ca         1 OUP      -0.099000
     12 C13        120.9390   251.8840   357.2960 ca         1 OUP      -0.163000
     13 C14        121.6680   252.9730   357.7600 ca         1 OUP       0.138100
     14 C15        121.4890   253.4320   359.0660 ca         1 OUP      -0.099300
     15 C16        120.5700   252.7750   359.8760 ca         1 OUP      -0.105000
     16 C17        122.2900   254.5830   359.6100 c3         1 OUP       0.200100
     17 C20        123.7620   252.9410   356.6900 c3         1 OUP       0.153400
     18 C21        124.6390   253.8330   355.8510 cy         1 OUP      -0.081700
     19 C22        125.2250   255.0590   356.5880 cy         1 OUP      -0.083900
     20 C23        126.6450   254.4730   356.4370 cy         1 OUP      -0.092400
     21 C24        126.0680   253.2790   355.6460 cy         1 OUP      -0.083900
     22 C4A        115.3590   249.6960   363.9450 c3         1 OUP      -0.056800
     23 N01        117.5840   247.6230   360.8770 nb         1 OUP      -0.762000
     24 N02        116.5350   245.6670   361.4400 nv         1 OUP      -0.958500
     25 N18        123.6250   254.1420   359.9920 n8         1 OUP      -0.884800
     26 O19        122.5310   253.6210   356.9330 os         1 OUP      -0.346900
     27 H1         115.2970   247.0700   363.2800 ha         1 OUP       0.136000
     28 H2         116.7530   251.6620   362.8850 ha         1 OUP       0.128000
     29 H3         118.3160   252.7800   361.4060 ha         1 OUP       0.132000
     30 H4         119.1950   249.0380   359.4880 ha         1 OUP       0.148000
     31 H5         119.4610   250.4120   357.7300 ha         1 OUP       0.137000
     32 H6         121.0650   251.5510   356.2730 ha         1 OUP       0.141000
     33 H7         120.4460   253.1250   360.8940 ha         1 OUP       0.128000
     34 H8         122.3980   255.3520   358.8440 h1         1 OUP       0.039200
     35 H9         121.7260   255.0400   360.4340 h1         1 OUP       0.039200
     36 H10        123.5770   251.9920   356.1720 h1         1 OUP       0.038200
     37 H11        124.2480   252.7170   357.6460 h1         1 OUP       0.038200
     38 H12        124.1280   254.0760   354.9160 hc         1 OUP       0.064700
     39 H13        125.0700   256.0080   356.0740 hc         1 OUP       0.051200
     40 H14        124.8800   255.1680   357.6170 hc         1 OUP       0.051200
     41 H15        127.1210   254.1990   357.3780 hc         1 OUP       0.046200
     42 H16        127.3430   255.0960   355.8770 hc         1 OUP       0.046200
     43 H17        126.2500   252.2970   356.0890 hc         1 OUP       0.051200
     44 H18        126.3800   253.2340   354.6030 hc         1 OUP       0.051200
     45 H19        114.7330   250.4810   363.5210 hc         1 OUP       0.048700
     46 H20        114.7160   249.0070   364.4890 hc         1 OUP       0.048700
     47 H21        116.0260   250.1730   364.6650 hc         1 OUP       0.048700
     48 H22        117.2080   245.1830   360.8690 hn         1 OUP       0.421800
     49 H23        116.1170   245.1160   362.1700 hn         1 OUP       0.421800
     50 H24        124.1680   254.9440   360.2870 hn         1 OUP       0.337300
     51 H25        123.5590   253.5390   360.8030 hn         1 OUP       0.337300
@<TRIPOS>BOND
     1     1     2 ar  
     2     1    23 ar  
     3     1    24 1   
     4     2     3 ar  
     5     2    27 1   
     6     3     4 ar  
     7     3    22 1   
     8     4     5 ar  
     9     4     9 ar  
    10     5     6 ar  
    11     5    28 1   
    12     6     7 ar  
    13     6    29 1   
    14     7     8 ar  
    15     7    10 1   
    16     8     9 ar  
    17     8    30 1   
    18     9    23 ar  
    19    10    11 ar  
    20    10    15 ar  
    21    11    12 ar  
    22    11    31 1   
    23    12    13 ar  
    24    12    32 1   
    25    13    14 ar  
    26    13    26 1   
    27    14    15 ar  
    28    14    16 1   
    29    15    33 1   
    30    16    25 1   
    31    16    34 1   
    32    16    35 1   
    33    17    18 1   
    34    17    26 1   
    35    17    36 1   
    36    17    37 1   
    37    18    19 1   
    38    18    21 1   
    39    18    38 1   
    40    19    20 1   
    41    19    39 1   
    42    19    40 1   
    43    20    21 1   
    44    20    41 1   
    45    20    42 1   
    46    21    43 1   
    47    21    44 1   
    48    22    45 1   
    49    22    46 1   
    50    22    47 1   
    51    24    48 1   
    52    24    49 1   
    53    25    50 1   
    54    25    51 1   
@<TRIPOS>SUBSTRUCTURE
     1 OUP         1 TEMP              0 ****  ****    0 ROOT
