@<TRIPOS>MOLECULE
OUP
   51    54     1     0     0
SMALL
No Charge or Current Charge


@<TRIPOS>ATOM
      1 C02        117.0040   246.9160   361.9740 ca         1 OUP       0.619900
      2 C03        115.9820   247.5490   362.6780 ca         1 OUP      -0.214000
      3 C04        115.9310   248.9510   362.6700 ca         1 OUP       0.007700
      4 C05        116.9340   249.6380   361.9420 ca         1 OUP      -0.123000
      5 C06        116.9640   251.0480   361.8790 ca         1 OUP      -0.076000
      6 C07        117.9690   251.7050   361.1520 ca         1 OUP      -0.123000
      7 C08        118.9710   250.9810   360.4680 cp         1 OUP      -0.008000
      8 C09        118.9270   249.5670   360.5400 ca         1 OUP      -0.097000
      9 C10        117.9310   248.8840   361.2620 ca         1 OUP       0.326000
     10 C11        120.0420   251.6840   359.6920 cp         1 OUP      -0.047000
     11 C12        120.5470   251.1420   358.4860 ca         1 OUP      -0.081000
     12 C13        121.5470   251.8030   357.7540 ca         1 OUP      -0.145000
     13 C14        122.0760   253.0300   358.2130 ca         1 OUP       0.138100
     14 C15        121.5930   253.5870   359.4200 ca         1 OUP      -0.099300
     15 C16        120.5820   252.9150   360.1390 ca         1 OUP      -0.087000
     16 C17        122.1260   254.9130   359.9590 c3         1 OUP       0.200100
     17 C20        123.6100   253.2070   356.2800 c3         1 OUP       0.176600
     18 C21        124.6630   254.2220   355.7900 cy         1 OUP      -0.081700
     19 C22        125.9960   254.3730   356.6060 cy         1 OUP      -0.083900
     20 C23        126.5840   253.2670   355.6690 cy         1 OUP      -0.092400
     21 C24        125.5870   253.8080   354.5910 cy         1 OUP      -0.083900
     22 C4A        114.8220   249.6700   363.4310 c3         1 OUP      -0.056800
     23 N01        117.9540   247.5310   361.2900 nb         1 OUP      -0.762000
     24 N02        117.1590   245.5930   361.9170 nv         1 OUP      -1.068900
     25 N18        122.9770   254.7200   361.1510 n8         1 OUP      -0.995200
     26 O19        123.0540   253.7080   357.5080 os         1 OUP      -0.370100
     27 H1         115.2450   246.9620   363.2150 ha         1 OUP       0.118000
     28 H2         116.2140   251.6500   362.3850 ha         1 OUP       0.110000
     29 H3         117.9590   252.7910   361.1100 ha         1 OUP       0.114000
     30 H4         119.6900   248.9830   360.0370 ha         1 OUP       0.130000
     31 H5         120.1480   250.2070   358.1010 ha         1 OUP       0.119000
     32 H6         121.8940   251.3490   356.8310 ha         1 OUP       0.123000
     33 H7         120.2210   253.3490   361.0670 ha         1 OUP       0.110000
     34 H8         122.7060   255.4470   359.1940 h1         1 OUP       0.039200
     35 H9         121.2770   255.5550   360.2360 h1         1 OUP       0.039200
     36 H10        122.8350   253.1080   355.5080 h1         1 OUP       0.038200
     37 H11        124.0860   252.2300   356.4340 h1         1 OUP       0.038200
     38 H12        124.1390   255.1700   355.6260 hc         1 OUP       0.064700
     39 H13        126.4780   255.3530   356.5060 hc         1 OUP       0.051200
     40 H14        125.9420   254.1190   357.6700 hc         1 OUP       0.051200
     41 H15        126.3920   252.2380   355.9960 hc         1 OUP       0.046200
     42 H16        127.6480   253.3620   355.4260 hc         1 OUP       0.046200
     43 H17        125.1770   253.0640   353.9010 hc         1 OUP       0.051200
     44 H18        125.9710   254.6520   354.0050 hc         1 OUP       0.051200
     45 H19        114.2120   250.2820   362.7550 hc         1 OUP       0.048700
     46 H20        114.1470   248.9640   363.9290 hc         1 OUP       0.048700
     47 H21        115.2360   250.3270   364.2050 hc         1 OUP       0.048700
     48 H22        118.0670   245.2960   361.5800 hn         1 OUP       0.477000
     49 H23        116.7550   245.0420   362.6660 hn         1 OUP       0.477000
     50 H24        123.2280   255.6400   361.5330 hn         1 OUP       0.392500
     51 H25        122.4120   254.2920   361.8930 hn         1 OUP       0.392500
@<TRIPOS>BOND
     1     1     2 ar  
     2     1    23 ar  
     3     1    24 1   
     4     2     3 ar  
     5     2    27 1   
     6     3     4 ar  
     7     3    22 1   
     8     4     5 ar  
     9     4     9 ar  
    10     5     6 ar  
    11     5    28 1   
    12     6     7 ar  
    13     6    29 1   
    14     7     8 ar  
    15     7    10 1   
    16     8     9 ar  
    17     8    30 1   
    18     9    23 ar  
    19    10    11 ar  
    20    10    15 ar  
    21    11    12 ar  
    22    11    31 1   
    23    12    13 ar  
    24    12    32 1   
    25    13    14 ar  
    26    13    26 1   
    27    14    15 ar  
    28    14    16 1   
    29    15    33 1   
    30    16    25 1   
    31    16    34 1   
    32    16    35 1   
    33    17    18 1   
    34    17    26 1   
    35    17    36 1   
    36    17    37 1   
    37    18    19 1   
    38    18    21 1   
    39    18    38 1   
    40    19    20 1   
    41    19    39 1   
    42    19    40 1   
    43    20    21 1   
    44    20    41 1   
    45    20    42 1   
    46    21    43 1   
    47    21    44 1   
    48    22    45 1   
    49    22    46 1   
    50    22    47 1   
    51    24    48 1   
    52    24    49 1   
    53    25    50 1   
    54    25    51 1   
@<TRIPOS>SUBSTRUCTURE
     1 OUP         1 TEMP              0 ****  ****    0 ROOT
