@<TRIPOS>MOLECULE
OUQ
   31    32     1     0     0
SMALL
abcg2


@<TRIPOS>ATOM
      1 CAA         -1.0320    -4.5180     4.8920 c3         1 OUQ      -0.098600
      2 CAB          1.3290    -3.6880     5.0240 c3         1 OUQ      -0.098600
      3 CAD         -5.4550    -1.5100     7.8930 ca         1 OUQ      -0.090000
      4 CAE         -5.7240    -0.1490     8.0110 ca         1 OUQ      -0.144000
      5 CAF         -4.1970    -1.9530     7.4990 ca         1 OUQ      -0.100000
      6 CAG         -3.4380     0.3270     7.3430 ca         1 OUQ      -0.143000
      7 CAH         -1.7830    -1.5780     5.2160 c6         1 OUQ       0.133800
      8 CAI         -0.2350    -3.2200     6.9030 c6         1 OUQ       0.165600
      9 CAL         -4.7000     0.7360     7.7290 ca         1 OUQ       0.162000
     10 CAM         -3.1800    -1.0380     7.2240 ca         1 OUQ      -0.057300
     11 CAN         -1.8270    -1.4870     6.7410 c6         1 OUQ       0.207600
     12 CAO         -0.1220    -3.3810     5.3850 c6         1 OUQ       0.145200
     13 NAJ         -0.4720    -2.0710     4.8010 n7         1 OUQ      -0.868400
     14 OAK         -1.5210    -2.7600     7.3110 os         1 OUQ      -0.458000
     15 H1          -0.7100    -5.4740     5.3090 hc         1 OUQ       0.040867
     16 H2          -2.0700    -4.3580     5.1810 hc         1 OUQ       0.040867
     17 H3          -0.9840    -4.5870     3.8030 hc         1 OUQ       0.040867
     18 H4           1.6500    -4.6280     5.4760 hc         1 OUQ       0.040867
     19 H5           1.4370    -3.7790     3.9410 hc         1 OUQ       0.040867
     20 H6           1.9880    -2.8890     5.3690 hc         1 OUQ       0.040867
     21 H7          -6.2370    -2.2270     8.1090 ha         1 OUQ       0.118000
     22 H8          -6.6950     0.2180     8.3150 ha         1 OUQ       0.132000
     23 H9          -3.9980    -3.0120     7.4100 ha         1 OUQ       0.132000
     24 H10         -2.6690     1.0630     7.1440 ha         1 OUQ       0.132000
     25 H11         -1.9360    -0.5830     4.7940 h1         1 OUQ       0.044700
     26 H12         -2.6180    -2.2110     4.8860 h1         1 OUQ       0.044700
     27 H13         -0.0810    -4.1780     7.4000 h1         1 OUQ       0.054200
     28 H14          0.5290    -2.5110     7.2470 h1         1 OUQ       0.054200
     29 H15         -1.0650    -0.7660     7.0650 h1         1 OUQ       0.057700
     30 H16         -0.4330    -2.1320     3.7890 hn         1 OUQ       0.416000
     31 FAC         -4.9420     2.0690     7.8410 f          1 OUQ      -0.186000
@<TRIPOS>BOND
     1     1    12 1   
     2     1    15 1   
     3     1    16 1   
     4     1    17 1   
     5     2    12 1   
     6     2    18 1   
     7     2    19 1   
     8     2    20 1   
     9     3     4 ar  
    10     3     5 ar  
    11     3    21 1   
    12     4     9 ar  
    13     4    22 1   
    14     5    10 ar  
    15     5    23 1   
    16     6     9 ar  
    17     6    10 ar  
    18     6    24 1   
    19     7    11 1   
    20     7    13 1   
    21     7    25 1   
    22     7    26 1   
    23     8    12 1   
    24     8    14 1   
    25     8    27 1   
    26     8    28 1   
    27     9    31 1   
    28    10    11 1   
    29    11    14 1   
    30    11    29 1   
    31    12    13 1   
    32    13    30 1   
@<TRIPOS>SUBSTRUCTURE
     1 OUQ         1 TEMP              0 ****  ****    0 ROOT
