@<TRIPOS>MOLECULE
OUQ
   31    32     1     0     0
SMALL
No Charge or Current Charge


@<TRIPOS>ATOM
      1 CAA         -0.9430    -4.6510     5.0740 c3         1 OUQ      -0.098600
      2 CAB          1.3800    -3.6900     4.9800 c3         1 OUQ      -0.098600
      3 CAD         -5.5840    -1.4190     7.5920 ca         1 OUQ      -0.090000
      4 CAE         -5.7500    -0.1180     8.0970 ca         1 OUQ      -0.144000
      5 CAF         -4.3250    -1.8330     7.1190 ca         1 OUQ      -0.100000
      6 CAG         -3.4000     0.3520     7.6580 ca         1 OUQ      -0.143000
      7 CAH         -1.8540    -1.6590     5.0860 c6         1 OUQ       0.133800
      8 CAI         -0.1390    -3.0680     6.9480 c6         1 OUQ       0.165600
      9 CAL         -4.6570     0.7620     8.1290 ca         1 OUQ       0.162000
     10 CAM         -3.2240    -0.9500     7.1480 ca         1 OUQ      -0.057300
     11 CAN         -1.8520    -1.3980     6.6290 c6         1 OUQ       0.207600
     12 CAO         -0.0830    -3.3950     5.4120 c6         1 OUQ       0.145200
     13 NAJ         -0.5630    -2.2410     4.5990 n7         1 OUQ      -0.868400
     14 OAK         -1.4540    -2.5980     7.3360 os         1 OUQ      -0.458000
     15 H1          -0.5630    -5.5400     5.5920 hc         1 OUQ       0.040867
     16 H2          -1.9890    -4.5260     5.3770 hc         1 OUQ       0.040867
     17 H3          -0.9330    -4.8690     3.9990 hc         1 OUQ       0.040867
     18 H4           1.7940    -4.5410     5.5350 hc         1 OUQ       0.040867
     19 H5           1.4460    -3.9290     3.9120 hc         1 OUQ       0.040867
     20 H6           2.0320    -2.8280     5.1670 hc         1 OUQ       0.040867
     21 H7          -6.4270    -2.1060     7.5660 ha         1 OUQ       0.118000
     22 H8          -6.7200     0.2080     8.4640 ha         1 OUQ       0.132000
     23 H9          -4.2030    -2.8430     6.7340 ha         1 OUQ       0.132000
     24 H10         -2.5660     1.0490     7.6910 ha         1 OUQ       0.132000
     25 H11         -2.0520    -0.7150     4.5580 h1         1 OUQ       0.044700
     26 H12         -2.6780    -2.3440     4.8390 h1         1 OUQ       0.044700
     27 H13          0.1080    -3.9640     7.5350 h1         1 OUQ       0.054200
     28 H14          0.6010    -2.2920     7.1940 h1         1 OUQ       0.054200
     29 H15         -1.1150    -0.6110     6.8470 h1         1 OUQ       0.057700
     30 H16         -0.6610    -2.5280     3.6180 hn         1 OUQ       0.416000
     31 FAC         -4.8170     2.0120     8.6160 f          1 OUQ      -0.186000
@<TRIPOS>BOND
     1     1    12 1   
     2     1    15 1   
     3     1    16 1   
     4     1    17 1   
     5     2    12 1   
     6     2    18 1   
     7     2    19 1   
     8     2    20 1   
     9     3     4 ar  
    10     3     5 ar  
    11     3    21 1   
    12     4     9 ar  
    13     4    22 1   
    14     5    10 ar  
    15     5    23 1   
    16     6     9 ar  
    17     6    10 ar  
    18     6    24 1   
    19     7    11 1   
    20     7    13 1   
    21     7    25 1   
    22     7    26 1   
    23     8    12 1   
    24     8    14 1   
    25     8    27 1   
    26     8    28 1   
    27     9    31 1   
    28    10    11 1   
    29    11    14 1   
    30    11    29 1   
    31    12    13 1   
    32    13    30 1   
@<TRIPOS>SUBSTRUCTURE
     1 OUQ         1 TEMP              0 ****  ****    0 ROOT
