@<TRIPOS>MOLECULE
OUR
   31    30     1     0     0
SMALL
bcc


@<TRIPOS>ATOM
      1 N            1.2880     1.5750    -0.8560 n8         1 OUR      -0.862800
      2 CA           1.1590     0.5070     0.1290 c3         1 OUR       0.140500
      3 C            4.8510    -0.2530     0.2510 c          1 OUR       1.001600
      4 O            4.8760    -1.4880     0.4410 o          1 OUR      -0.843800
      5 CB          -0.1130    -0.3350    -0.0090 c3         1 OUR      -0.117400
      6 CG          -1.3960     0.4630     0.1760 c3         1 OUR      -0.095400
      7 CD          -2.6190    -0.4240     0.0210 c3         1 OUR       0.024300
      8 NE          -3.8340     0.3470     0.2280 nu         1 OUR      -0.395100
      9 CZ          -5.0600    -0.1140     0.0220 cz         1 OUR       0.522300
     10 NH1         -5.2490    -1.3240    -0.4840 nv         1 OUR      -0.512700
     11 NH2         -6.1080     0.6500     0.3090 nv         1 OUR      -0.512700
     12 CM           2.3880    -0.3950     0.0590 c3         1 OUR       0.132000
     13 N2           3.5930     0.3680     0.2480 ns         1 OUR      -0.611900
     14 O1           5.8380     0.5010     0.0920 o          1 OUR      -0.843800
     15 H            1.1600     1.1980    -1.7890 hn         1 OUR       0.321800
     16 H2           0.5590     2.2650    -0.7290 hn         1 OUR       0.321800
     17 HA           1.1510     0.9850     1.1150 h1         1 OUR       0.066700
     18 HB3         -0.1180    -0.8170    -0.9940 hc         1 OUR       0.051200
     19 HB2         -0.0860    -1.1430     0.7300 hc         1 OUR       0.051200
     20 HG3         -1.4010     0.9250     1.1690 hc         1 OUR       0.054200
     21 HG2         -1.4530     1.2730    -0.5550 hc         1 OUR       0.054200
     22 HD3         -2.6230    -0.8490    -0.9860 h1         1 OUR       0.066700
     23 HD2         -2.5770    -1.2540     0.7310 h1         1 OUR       0.066700
     24 HE          -3.7460     1.2510     0.6670 hn         1 OUR       0.321700
     25 HH12        -4.4840    -1.9080    -0.7750 hn         1 OUR       0.325200
     26 HH11        -6.1760    -1.6690    -0.6670 hn         1 OUR       0.325200
     27 HH22        -5.9940     1.5150     0.8090 hn         1 OUR       0.325200
     28 HM2          2.3050    -1.1570     0.8360 h1         1 OUR       0.015700
     29 HM3          2.3700    -0.9350    -0.9030 h1         1 OUR       0.015700
     30 HN2          3.5640     1.2670    -0.2100 hn         1 OUR       0.267500
     31 HH21        -7.0450     0.2920     0.2300 hn         1 OUR       0.325200
@<TRIPOS>BOND
     1     1     2 1   
     2     1    15 1   
     3     1    16 1   
     4     2     5 1   
     5     2    12 1   
     6     2    17 1   
     7     3     4 1   
     8     3    13 1   
     9     3    14 1   
    10     5     6 1   
    11     5    18 1   
    12     5    19 1   
    13     6     7 1   
    14     6    20 1   
    15     6    21 1   
    16     7     8 1   
    17     7    22 1   
    18     7    23 1   
    19     8     9 2   
    20     8    24 1   
    21     9    10 1   
    22     9    11 1   
    23    10    25 1   
    24    10    26 1   
    25    11    27 1   
    26    11    31 1   
    27    12    13 1   
    28    12    28 1   
    29    12    29 1   
    30    13    30 1   
@<TRIPOS>SUBSTRUCTURE
     1 OUR         1 TEMP              0 ****  ****    0 ROOT
