@<TRIPOS>MOLECULE
OUR
   31    30     1     0     0
SMALL
No Charge or Current Charge


@<TRIPOS>ATOM
      1 N            1.2410     1.6330    -0.8550 n8         1 OUR      -0.973200
      2 CA           1.1930     0.4630     0.0560 c3         1 OUR       0.140500
      3 C            4.9220    -0.1760     0.4780 c          1 OUR       0.724000
      4 O            5.0410    -1.3830     0.5770 o          1 OUR      -0.738500
      5 CB          -0.0920    -0.3650    -0.1960 c3         1 OUR      -0.117400
      6 CG          -1.4150     0.3950     0.0720 c3         1 OUR      -0.095400
      7 CD          -2.6580    -0.4960    -0.1120 c3         1 OUR       0.053600
      8 NE          -3.8800     0.2810     0.1650 nu         1 OUR      -0.880000
      9 CZ          -5.1370    -0.1090     0.1160 cz         1 OUR       0.927600
     10 NH1         -5.4400    -1.3320    -0.2110 nv         1 OUR      -0.613300
     11 NH2         -6.0770     0.7420     0.4000 nv         1 OUR      -0.613300
     12 CM           2.4750    -0.4150    -0.0590 c3         1 OUR       0.132000
     13 N2           3.7040     0.3500     0.1710 ns         1 OUR      -0.544900
     14 O1           5.8300     0.6160     0.6320 o          1 OUR      -0.738500
     15 H            1.3030     1.2960    -1.8220 hn         1 OUR       0.377000
     16 H2           0.3370     2.1130    -0.8210 hn         1 OUR       0.377000
     17 HA           1.1470     0.8440     1.0870 h1         1 OUR       0.066700
     18 HB3         -0.0890    -0.7380    -1.2290 hc         1 OUR       0.051200
     19 HB2         -0.0650    -1.2500     0.4520 hc         1 OUR       0.051200
     20 HG3         -1.4020     0.7880     1.0970 hc         1 OUR       0.054200
     21 HG2         -1.4940     1.2550    -0.6040 hc         1 OUR       0.054200
     22 HD3         -2.6740    -0.8810    -1.1420 h1         1 OUR       0.066700
     23 HD2         -2.5890    -1.3550     0.5720 h1         1 OUR       0.066700
     24 HE          -3.7350     1.2490     0.4300 hn         1 OUR       0.372000
     25 HH12        -4.7200    -1.9970    -0.4310 hn         1 OUR       0.375500
     26 HH11        -6.3920    -1.6560    -0.2540 hn         1 OUR       0.375500
     27 HH22        -5.8660     1.6920     0.6550 hn         1 OUR       0.375500
     28 HM2          2.4170    -1.2260     0.6790 h1         1 OUR       0.015700
     29 HM3          2.5280    -0.8650    -1.0590 h1         1 OUR       0.015700
     30 HN2          3.6570     1.3550     0.0830 hn         1 OUR       0.267500
     31 HH21        -7.0500     0.4880     0.3760 hn         1 OUR       0.375500
@<TRIPOS>BOND
     1     1     2 1   
     2     1    15 1   
     3     1    16 1   
     4     2     5 1   
     5     2    12 1   
     6     2    17 1   
     7     3     4 1   
     8     3    13 1   
     9     3    14 1   
    10     5     6 1   
    11     5    18 1   
    12     5    19 1   
    13     6     7 1   
    14     6    20 1   
    15     6    21 1   
    16     7     8 1   
    17     7    22 1   
    18     7    23 1   
    19     8     9 2   
    20     8    24 1   
    21     9    10 1   
    22     9    11 1   
    23    10    25 1   
    24    10    26 1   
    25    11    27 1   
    26    11    31 1   
    27    12    13 1   
    28    12    28 1   
    29    12    29 1   
    30    13    30 1   
@<TRIPOS>SUBSTRUCTURE
     1 OUR         1 TEMP              0 ****  ****    0 ROOT
