@<TRIPOS>MOLECULE
OUS
   50    53     1     0     0
SMALL
abcg2


@<TRIPOS>ATOM
      1 C02        116.5410   244.2510   359.5040 ca         1 OUS       0.622900
      2 C03        115.8650   244.7390   360.6640 ca         1 OUS      -0.216000
      3 C04        116.1030   246.0020   361.1100 ca         1 OUS       0.008700
      4 C05        117.0320   246.8070   360.3820 ca         1 OUS      -0.125000
      5 C06        117.3540   248.1310   360.7340 ca         1 OUS      -0.075000
      6 C07        118.2500   248.8620   360.0000 ca         1 OUS      -0.126000
      7 C08        118.8870   248.3020   358.8690 cp         1 OUS      -0.002000
      8 C09        118.5810   247.0040   358.5170 ca         1 OUS      -0.100000
      9 C10        117.6530   246.2340   359.2460 ca         1 OUS       0.328000
     10 C11        115.4160   246.5350   362.3270 c3         1 OUS      -0.056800
     11 C21        119.8550   249.0970   358.0890 cp         1 OUS      -0.071000
     12 C22        120.0160   248.9120   356.7200 ca         1 OUS      -0.056000
     13 C23        120.9360   249.6570   355.9940 ca         1 OUS      -0.199000
     14 C24        121.7160   250.6130   356.6340 ca         1 OUS       0.168100
     15 C25        121.5800   250.8240   358.0130 ca         1 OUS      -0.117300
     16 C26        120.6540   250.0640   358.7070 ca         1 OUS      -0.065000
     17 C27        122.4690   251.7970   358.7400 c3         1 OUS       0.206100
     18 C30        123.1650   250.9530   354.7730 c3         1 OUS       0.219900
     19 C32        124.6270   252.3980   353.3180 ca         1 OUS       0.346900
     20 C33        124.4010   251.7650   354.5330 ca         1 OUS      -0.148300
     21 C34        125.3660   251.9040   355.5260 ca         1 OUS      -0.044000
     22 C35        126.5010   252.6470   355.2520 ca         1 OUS      -0.172000
     23 C36        126.6300   253.2260   353.9970 ca         1 OUS       0.338900
     24 N01        117.4050   244.9690   358.8290 nb         1 OUS      -0.763000
     25 N02        116.2530   243.0030   359.0570 nv         1 OUS      -1.073900
     26 N28        123.8120   251.2490   358.8900 n8         1 OUS      -0.992200
     27 N31        125.7140   253.1110   353.0450 nb         1 OUS      -0.669000
     28 O29        122.6130   251.3910   355.9990 os         1 OUS      -0.339100
     29 H1         115.1630   244.0950   361.1790 ha         1 OUS       0.118000
     30 H2         116.8800   248.5920   361.5920 ha         1 OUS       0.110000
     31 H3         118.4510   249.8880   360.2810 ha         1 OUS       0.113000
     32 H4         119.0650   246.5320   357.6700 ha         1 OUS       0.129000
     33 H5         114.8480   247.4380   362.0980 hc         1 OUS       0.048367
     34 H6         114.7290   245.8040   362.7470 hc         1 OUS       0.048367
     35 H7         116.1390   246.8000   363.1010 hc         1 OUS       0.048367
     36 H8         119.4040   248.1930   356.1900 ha         1 OUS       0.118000
     37 H9         121.0160   249.4930   354.9280 ha         1 OUS       0.119000
     38 H10        120.5740   250.2210   359.7770 ha         1 OUS       0.111000
     39 H11        122.5460   252.7290   358.1780 h1         1 OUS       0.037200
     40 H12        121.9910   252.0520   359.6940 h1         1 OUS       0.037200
     41 H13        122.4590   251.0660   353.9440 h1         1 OUS       0.043700
     42 H14        123.4250   249.8900   354.8390 h1         1 OUS       0.043700
     43 H16        125.2170   251.4570   356.5030 ha         1 OUS       0.147000
     44 H17        127.2760   252.7790   355.9950 ha         1 OUS       0.123000
     45 H18        127.5090   253.8150   353.7570 h4         1 OUS       0.017100
     46 H19        116.8720   242.5920   358.3790 hn         1 OUS       0.479000
     47 H20        115.7940   242.3560   359.6730 hn         1 OUS       0.479000
     48 H21        124.4130   251.9560   359.2930 hn         1 OUS       0.391000
     49 H22        123.7860   250.4930   359.5630 hn         1 OUS       0.391000
     50 H15        123.8870   252.3270   352.5270 h4         1 OUS       0.016100
@<TRIPOS>BOND
     1     1     2 ar  
     2     1    24 ar  
     3     1    25 1   
     4     2     3 ar  
     5     2    29 1   
     6     3     4 ar  
     7     3    10 1   
     8     4     5 ar  
     9     4     9 ar  
    10     5     6 ar  
    11     5    30 1   
    12     6     7 ar  
    13     6    31 1   
    14     7     8 ar  
    15     7    11 1   
    16     8     9 ar  
    17     8    32 1   
    18     9    24 ar  
    19    10    33 1   
    20    10    34 1   
    21    10    35 1   
    22    11    12 ar  
    23    11    16 ar  
    24    12    13 ar  
    25    12    36 1   
    26    13    14 ar  
    27    13    37 1   
    28    14    15 ar  
    29    14    28 1   
    30    15    16 ar  
    31    15    17 1   
    32    16    38 1   
    33    17    26 1   
    34    17    39 1   
    35    17    40 1   
    36    18    20 1   
    37    18    28 1   
    38    18    41 1   
    39    18    42 1   
    40    19    20 ar  
    41    19    27 ar  
    42    19    50 1   
    43    20    21 ar  
    44    21    22 ar  
    45    21    43 1   
    46    22    23 ar  
    47    22    44 1   
    48    23    27 ar  
    49    23    45 1   
    50    25    46 1   
    51    25    47 1   
    52    26    48 1   
    53    26    49 1   
@<TRIPOS>SUBSTRUCTURE
     1 OUS         1 TEMP              0 ****  ****    0 ROOT
