@<TRIPOS>MOLECULE
OUS
   50    53     1     0     0
SMALL
No Charge or Current Charge


@<TRIPOS>ATOM
      1 C02        116.5210   244.1970   359.6550 ca         1 OUS       0.622900
      2 C03        115.7040   244.7390   360.6440 ca         1 OUS      -0.216000
      3 C04        115.8790   246.0860   360.9940 ca         1 OUS       0.008700
      4 C05        116.8870   246.8130   360.3130 ca         1 OUS      -0.125000
      5 C06        117.1360   248.1730   360.6000 ca         1 OUS      -0.075000
      6 C07        118.1420   248.8700   359.9130 ca         1 OUS      -0.126000
      7 C08        118.9270   248.2370   358.9230 cp         1 OUS      -0.002000
      8 C09        118.6640   246.8740   358.6470 ca         1 OUS      -0.100000
      9 C10        117.6630   246.1520   359.3210 ca         1 OUS       0.328000
     10 C11        114.9960   246.7070   362.0730 c3         1 OUS      -0.056800
     11 C21        119.9990   248.9840   358.1900 cp         1 OUS      -0.071000
     12 C22        120.2650   248.7290   356.8240 ca         1 OUS      -0.056000
     13 C23        121.2670   249.4320   356.1350 ca         1 OUS      -0.199000
     14 C24        122.0370   250.4130   356.7980 ca         1 OUS       0.168100
     15 C25        121.7930   250.6800   358.1640 ca         1 OUS      -0.117300
     16 C26        120.7800   249.9700   358.8410 ca         1 OUS      -0.065000
     17 C27        122.5930   251.7330   358.9260 c3         1 OUS       0.206100
     18 C30        123.3400   250.9150   354.7580 c3         1 OUS       0.219900
     19 C32        124.1800   253.0850   353.7440 ca         1 OUS       0.346900
     20 C33        124.4650   251.8620   354.3800 ca         1 OUS      -0.148300
     21 C34        125.8060   251.5410   354.6590 ca         1 OUS      -0.044000
     22 C35        126.8000   252.4600   354.2840 ca         1 OUS      -0.172000
     23 C36        126.4250   253.6560   353.6500 ca         1 OUS       0.338900
     24 N01        117.4710   244.8490   359.0070 nb         1 OUS      -0.763000
     25 N02        116.4540   242.9290   359.2470 nv         1 OUS      -1.073900
     26 N28        123.5850   251.1160   359.8280 n8         1 OUS      -0.992200
     27 N31        125.1370   253.9720   353.3810 nb         1 OUS      -0.669000
     28 O29        123.0230   251.1260   356.1430 os         1 OUS      -0.339100
     29 H1         114.9490   244.1260   361.1260 ha         1 OUS       0.118000
     30 H2         116.5580   248.7060   361.3500 ha         1 OUS       0.110000
     31 H3         118.3020   249.9200   360.1440 ha         1 OUS       0.113000
     32 H4         119.2590   246.3560   357.9020 ha         1 OUS       0.129000
     33 H5         114.4190   247.5480   361.6740 hc         1 OUS       0.048367
     34 H6         114.2800   245.9820   362.4780 hc         1 OUS       0.048367
     35 H7         115.5990   247.0740   362.9120 hc         1 OUS       0.048367
     36 H8         119.6770   247.9890   356.2850 ha         1 OUS       0.118000
     37 H9         121.4250   249.2020   355.0860 ha         1 OUS       0.119000
     38 H10        120.6050   250.1800   359.8940 ha         1 OUS       0.111000
     39 H11        123.1150   252.4090   358.2350 h1         1 OUS       0.037200
     40 H12        121.9050   252.3430   359.5280 h1         1 OUS       0.037200
     41 H13        122.4640   251.1120   354.1260 h1         1 OUS       0.043700
     42 H14        123.6620   249.8800   354.5880 h1         1 OUS       0.043700
     43 H16        126.0690   250.6080   355.1540 ha         1 OUS       0.147000
     44 H17        127.8480   252.2540   354.4790 ha         1 OUS       0.123000
     45 H18        127.1770   254.3850   353.3490 h4         1 OUS       0.017100
     46 H19        117.2570   242.6250   358.7110 hn         1 OUS       0.479000
     47 H20        116.0590   242.2520   359.8900 hn         1 OUS       0.479000
     48 H21        124.0290   251.8540   360.3880 hn         1 OUS       0.391000
     49 H22        123.0890   250.5460   360.5220 hn         1 OUS       0.391000
     50 H15        123.1530   253.3670   353.5160 h4         1 OUS       0.016100
@<TRIPOS>BOND
     1     1     2 ar  
     2     1    24 ar  
     3     1    25 1   
     4     2     3 ar  
     5     2    29 1   
     6     3     4 ar  
     7     3    10 1   
     8     4     5 ar  
     9     4     9 ar  
    10     5     6 ar  
    11     5    30 1   
    12     6     7 ar  
    13     6    31 1   
    14     7     8 ar  
    15     7    11 1   
    16     8     9 ar  
    17     8    32 1   
    18     9    24 ar  
    19    10    33 1   
    20    10    34 1   
    21    10    35 1   
    22    11    12 ar  
    23    11    16 ar  
    24    12    13 ar  
    25    12    36 1   
    26    13    14 ar  
    27    13    37 1   
    28    14    15 ar  
    29    14    28 1   
    30    15    16 ar  
    31    15    17 1   
    32    16    38 1   
    33    17    26 1   
    34    17    39 1   
    35    17    40 1   
    36    18    20 1   
    37    18    28 1   
    38    18    41 1   
    39    18    42 1   
    40    19    20 ar  
    41    19    27 ar  
    42    19    50 1   
    43    20    21 ar  
    44    21    22 ar  
    45    21    43 1   
    46    22    23 ar  
    47    22    44 1   
    48    23    27 ar  
    49    23    45 1   
    50    25    46 1   
    51    25    47 1   
    52    26    48 1   
    53    26    49 1   
@<TRIPOS>SUBSTRUCTURE
     1 OUS         1 TEMP              0 ****  ****    0 ROOT
