@<TRIPOS>MOLECULE
OUT
    6     5     1     0     0
SMALL
No Charge or Current Charge


@<TRIPOS>ATOM
      1 N           -0.5710    -0.0260     1.1950 nt         1 OUT      -0.637000
      2 C            0.0160    -0.0020    -0.0050 c          1 OUT       0.710000
      3 O1           1.2270    -0.0440    -0.0320 o          1 OUT      -0.757500
      4 O2          -0.7080     0.0610    -0.9750 o          1 OUT      -0.757500
      5 HN1         -0.0010    -0.0790     2.0250 hn         1 OUT       0.221000
      6 HN2         -1.5760     0.0070     1.2570 hn         1 OUT       0.221000
@<TRIPOS>BOND
     1     1     2 1   
     2     1     5 1   
     3     1     6 1   
     4     2     3 1   
     5     2     4 1   
@<TRIPOS>SUBSTRUCTURE
     1 OUT         1 TEMP              0 ****  ****    0 ROOT
