@<TRIPOS>MOLECULE
OUT
    6     5     1     0     0
SMALL
abcg2


@<TRIPOS>ATOM
      1 N           -0.5790     0.1840     1.2370 nt         1 OUT      -0.637000
      2 C            0.0270     0.0210    -0.0260 c          1 OUT       0.710000
      3 O1           1.2740    -0.0730    -0.0360 o          1 OUT      -0.757500
      4 O2          -0.7360     0.0320    -1.0150 o          1 OUT      -0.757500
      5 HN1         -0.0480    -0.1660     2.0180 hn         1 OUT       0.221000
      6 HN2         -1.5500    -0.0800     1.2860 hn         1 OUT       0.221000
@<TRIPOS>BOND
     1     1     2 1   
     2     1     5 1   
     3     1     6 1   
     4     2     3 1   
     5     2     4 1   
@<TRIPOS>SUBSTRUCTURE
     1 OUT         1 TEMP              0 ****  ****    0 ROOT
