@<TRIPOS>MOLECULE
OUU
   37    37     1     0     0
SMALL
No Charge or Current Charge


@<TRIPOS>ATOM
      1 C4         -14.4290    17.2990    17.6370 c6         1 OUU       0.160300
      2 C5         -14.9840    16.7420    18.9890 c6         1 OUU      -0.250700
      3 C8         -14.7570    19.7630    17.8940 c3         1 OUU       0.153600
      4 C12        -12.2680    23.2820    16.6260 c3         1 OUU      -0.179100
      5 C3         -13.3070    16.3630    17.0810 c6         1 OUU       0.164300
      6 C2         -13.8260    14.8980    16.8920 c6         1 OUU       0.177300
      7 C1         -14.3720    14.3590    18.2380 c6         1 OUU      -0.117400
      8 C7         -15.4680    15.2760    18.8290 c6         1 OUU       0.204300
      9 C6         -16.1140    17.5800    19.5990 c          1 OUU       0.719000
     10 O6A        -17.1580    17.6610    18.9660 o          1 OUU      -0.717000
     11 O6B        -15.9470    18.0560    20.7100 o          1 OUU      -0.717000
     12 O4         -13.8670    18.6380    17.7250 os         1 OUU      -0.479000
     13 O3         -12.7770    16.9290    15.8640 oh         1 OUU      -0.722000
     14 O2         -12.7810    14.0190    16.4330 oh         1 OUU      -0.662000
     15 O8         -16.6270    15.2430    18.0010 oh         1 OUU      -0.736000
     16 C9         -13.9620    21.0570    17.6130 c3         1 OUU       0.101000
     17 N10        -13.4890    21.1460    16.2230 ns         1 OUU      -0.499900
     18 C11        -12.6890    22.1350    15.7030 c          1 OUU       0.600100
     19 O13        -12.3420    22.0860    14.5340 o          1 OUU      -0.633100
     20 H4         -15.2450    17.3220    16.8990 h1         1 OUU       0.060700
     21 H5         -14.1570    16.7480    19.7110 hc         1 OUU       0.055700
     22 H81        -15.1380    19.8180    18.9200 h1         1 OUU       0.042700
     23 H8         -15.6100    19.7020    17.2050 h1         1 OUU       0.042700
     24 H122       -11.6570    24.0310    16.1110 hc         1 OUU       0.053700
     25 H12        -13.1600    23.7330    17.0750 hc         1 OUU       0.053700
     26 H121       -11.7430    22.8720    17.4950 hc         1 OUU       0.053700
     27 H3         -12.5070    16.3320    17.8370 h1         1 OUU       0.040700
     28 H2         -14.6470    14.9150    16.1600 h1         1 OUU       0.053700
     29 H6         -14.7720    13.3450    18.1050 hc         1 OUU       0.036700
     30 H1         -13.5500    14.2720    18.9620 hc         1 OUU       0.036700
     31 H9         -15.7290    14.8940    19.8270 h1         1 OUU       0.024700
     32 HO3        -12.7210    17.8940    16.0600 ho         1 OUU       0.503000
     33 HO2        -13.2040    13.1510    16.2570 ho         1 OUU       0.428000
     34 H11        -17.0890    16.1020    18.2130 ho         1 OUU       0.514000
     35 H91        -14.6080    21.9200    17.8220 h1         1 OUU       0.052700
     36 H92        -13.1010    21.1000    18.2930 h1         1 OUU       0.052700
     37 HN10       -13.7510    20.4100    15.5800 hn         1 OUU       0.325500
@<TRIPOS>BOND
     1     1     2 1   
     2     1     5 1   
     3     1    12 1   
     4     1    20 1   
     5     2     8 1   
     6     2     9 1   
     7     2    21 1   
     8     3    12 1   
     9     3    16 1   
    10     3    22 1   
    11     3    23 1   
    12     4    18 1   
    13     4    24 1   
    14     4    25 1   
    15     4    26 1   
    16     5     6 1   
    17     5    13 1   
    18     5    27 1   
    19     6     7 1   
    20     6    14 1   
    21     6    28 1   
    22     7     8 1   
    23     7    29 1   
    24     7    30 1   
    25     8    15 1   
    26     8    31 1   
    27     9    10 1   
    28     9    11 1   
    29    13    32 1   
    30    14    33 1   
    31    15    34 1   
    32    16    17 1   
    33    16    35 1   
    34    16    36 1   
    35    17    18 1   
    36    17    37 1   
    37    18    19 2   
@<TRIPOS>SUBSTRUCTURE
     1 OUU         1 TEMP              0 ****  ****    0 ROOT
