@<TRIPOS>MOLECULE
OUU
   37    37     1     0     0
SMALL
abcg2


@<TRIPOS>ATOM
      1 C4         -14.4870    17.2530    17.6130 c6         1 OUU       0.160300
      2 C5         -14.6750    16.7650    19.0490 c6         1 OUU      -0.250700
      3 C8         -14.7340    19.5980    17.2080 c3         1 OUU       0.153600
      4 C12        -12.8840    23.4230    16.6540 c3         1 OUU      -0.179100
      5 C3         -13.5820    16.3150    16.8140 c6         1 OUU       0.164300
      6 C2         -14.1800    14.9170    16.7880 c6         1 OUU       0.177300
      7 C1         -14.4050    14.4170    18.2110 c6         1 OUU      -0.117400
      8 C7         -15.2770    15.3500    19.0370 c6         1 OUU       0.204300
      9 C6         -15.5510    17.7470    19.8520 c          1 OUU       0.719000
     10 O6A        -16.7890    17.6970    19.5980 o          1 OUU      -0.717000
     11 O6B        -15.0090    18.5030    20.6660 o          1 OUU      -0.717000
     12 O4         -13.8920    18.5400    17.6070 os         1 OUU      -0.479000
     13 O3         -13.4270    16.7660    15.4890 oh         1 OUU      -0.722000
     14 O2         -13.2940    14.0750    16.0780 oh         1 OUU      -0.662000
     15 O8         -16.5840    15.3540    18.5150 oh         1 OUU      -0.736000
     16 C9         -14.0340    20.9020    17.5160 c3         1 OUU       0.101000
     17 N10        -12.7740    20.9980    16.8120 ns         1 OUU      -0.499900
     18 C11        -12.1320    22.1300    16.4560 c          1 OUU       0.600100
     19 O13        -11.0040    22.1030    15.9850 o          1 OUU      -0.633100
     20 H4         -15.4590    17.2940    17.1050 h1         1 OUU       0.060700
     21 H5         -13.6870    16.7040    19.5170 hc         1 OUU       0.055700
     22 H81        -15.6860    19.5810    17.7480 h1         1 OUU       0.042700
     23 H8         -14.9610    19.5350    16.1360 h1         1 OUU       0.042700
     24 H122       -12.2640    24.2570    16.3370 hc         1 OUU       0.053700
     25 H12        -13.8080    23.4390    16.0740 hc         1 OUU       0.053700
     26 H121       -13.1580    23.5700    17.7000 hc         1 OUU       0.053700
     27 H3         -12.6060    16.2620    17.3260 h1         1 OUU       0.040700
     28 H2         -15.1490    14.9730    16.2700 h1         1 OUU       0.053700
     29 H6         -14.8530    13.4180    18.1840 hc         1 OUU       0.036700
     30 H1         -13.4350    14.3140    18.7090 hc         1 OUU       0.036700
     31 H9         -15.2750    14.9790    20.0750 h1         1 OUU       0.024700
     32 HO3        -13.0430    17.6490    15.5260 ho         1 OUU       0.503000
     33 HO2        -13.6910    13.2000    16.0330 ho         1 OUU       0.428000
     34 H11        -16.9520    16.2150    18.8340 ho         1 OUU       0.514000
     35 H91        -14.6940    21.7120    17.2100 h1         1 OUU       0.052700
     36 H92        -13.8940    20.9890    18.5990 h1         1 OUU       0.052700
     37 HN10       -12.2250    20.1520    16.7580 hn         1 OUU       0.325500
@<TRIPOS>BOND
     1     1     2 1   
     2     1     5 1   
     3     1    12 1   
     4     1    20 1   
     5     2     8 1   
     6     2     9 1   
     7     2    21 1   
     8     3    12 1   
     9     3    16 1   
    10     3    22 1   
    11     3    23 1   
    12     4    18 1   
    13     4    24 1   
    14     4    25 1   
    15     4    26 1   
    16     5     6 1   
    17     5    13 1   
    18     5    27 1   
    19     6     7 1   
    20     6    14 1   
    21     6    28 1   
    22     7     8 1   
    23     7    29 1   
    24     7    30 1   
    25     8    15 1   
    26     8    31 1   
    27     9    10 1   
    28     9    11 1   
    29    13    32 1   
    30    14    33 1   
    31    15    34 1   
    32    16    17 1   
    33    16    35 1   
    34    16    36 1   
    35    17    18 1   
    36    17    37 1   
    37    18    19 2   
@<TRIPOS>SUBSTRUCTURE
     1 OUU         1 TEMP              0 ****  ****    0 ROOT
