@<TRIPOS>MOLECULE
OUW
   23    23     1     0     0
SMALL
bcc


@<TRIPOS>ATOM
      1 CAA         21.9260   -29.5310    25.7460 c3         1 OUW       0.097300
      2 CAB         25.9800   -23.0900    26.4270 c3         1 OUW       0.216100
      3 CAD         21.2940   -24.2810    26.9440 ca         1 OUW       0.442200
      4 CAE         22.2840   -23.3260    26.9890 ca         1 OUW      -0.332300
      5 CAF         23.8310   -25.0470    26.3850 ca         1 OUW      -0.282300
      6 CAJ         22.9950   -27.3600    26.0270 c          1 OUW       0.566600
      7 CAK         23.6120   -23.6960    26.7060 ca         1 OUW       0.230600
      8 CAL         22.7550   -25.9130    26.3720 ca         1 OUW       0.393800
      9 NAG         21.5010   -25.5610    26.6440 nb         1 OUW      -0.723000
     10 NAH         21.9010   -28.1210    26.0430 ns         1 OUW      -0.554900
     11 OAC         24.1130   -27.7800    25.7560 o          1 OUW      -0.614100
     12 H1          20.9160   -29.9200    25.8370 h1         1 OUW       0.038700
     13 H2          22.2780   -29.7240    24.7320 h1         1 OUW       0.038700
     14 H3          22.5670   -30.0770    26.4390 h1         1 OUW       0.038700
     15 H4          26.5700   -22.1890    26.5670 h1         1 OUW       0.040700
     16 H5          26.3910   -23.8640    27.0790 h1         1 OUW       0.040700
     17 H6          26.1040   -23.4190    25.3920 h1         1 OUW       0.040700
     18 H7          20.2700   -23.9970    27.1630 h4         1 OUW       0.015100
     19 H8          22.0370   -22.3020    27.2400 ha         1 OUW       0.137000
     20 H9          24.8180   -25.4190    26.1480 ha         1 OUW       0.166000
     21 H10         21.0300   -27.6720    26.2830 hn         1 OUW       0.345500
     22 H11         24.3670   -21.8360    26.9340 hn         1 OUW       0.437800
     23 NAI         24.6090   -22.7940    26.7480 nu         1 OUW      -0.779600
@<TRIPOS>BOND
     1     1    10 1   
     2     1    12 1   
     3     1    13 1   
     4     1    14 1   
     5     2    15 1   
     6     2    16 1   
     7     2    17 1   
     8     2    23 1   
     9     3     4 ar  
    10     3     9 ar  
    11     3    18 1   
    12     4     7 ar  
    13     4    19 1   
    14     5     7 ar  
    15     5     8 ar  
    16     5    20 1   
    17     6     8 1   
    18     6    10 1   
    19     6    11 2   
    20     7    23 1   
    21     8     9 ar  
    22    10    21 1   
    23    22    23 1   
@<TRIPOS>SUBSTRUCTURE
     1 OUW         1 TEMP              0 ****  ****    0 ROOT
