@<TRIPOS>MOLECULE
OUW
   23    23     1     0     0
SMALL
No Charge or Current Charge


@<TRIPOS>ATOM
      1 CAA         21.8640   -29.6560    25.7290 c3         1 OUW       0.097300
      2 CAB         26.0610   -22.9810    26.4410 c3         1 OUW       0.216100
      3 CAD         21.2740   -24.2290    26.9650 ca         1 OUW       0.376900
      4 CAE         22.3030   -23.2850    26.9940 ca         1 OUW      -0.249000
      5 CAF         23.8280   -25.0340    26.3760 ca         1 OUW      -0.199000
      6 CAJ         22.9940   -27.4160    26.0130 c          1 OUW       0.499600
      7 CAK         23.6000   -23.6930    26.6950 ca         1 OUW       0.369000
      8 CAL         22.7500   -25.9380    26.3640 ca         1 OUW       0.328500
      9 NAG         21.4800   -25.5280    26.6590 nb         1 OUW      -0.723000
     10 NAH         21.8720   -28.2240    26.0280 ns         1 OUW      -0.487900
     11 OAC         24.0990   -27.8770    25.7350 o          1 OUW      -0.614100
     12 H1          20.8400   -30.0430    25.8160 h1         1 OUW       0.038700
     13 H2          22.2280   -29.8220    24.7070 h1         1 OUW       0.038700
     14 H3          22.5130   -30.1860    26.4380 h1         1 OUW       0.038700
     15 H4          26.6260   -22.0450    26.5440 h1         1 OUW       0.040700
     16 H5          26.4810   -23.7160    27.1410 h1         1 OUW       0.040700
     17 H6          26.1980   -23.3550    25.4170 h1         1 OUW       0.040700
     18 H7          20.2480   -23.9410    27.1940 h4         1 OUW       0.015100
     19 H8          22.0820   -22.2530    27.2470 ha         1 OUW       0.119000
     20 H9          24.8260   -25.3840    26.1380 ha         1 OUW       0.148000
     21 H10         21.0000   -27.7590    26.2690 hn         1 OUW       0.345500
     22 H11         24.3520   -21.8000    26.9690 hn         1 OUW       0.493000
     23 NAI         24.6300   -22.7540    26.7230 nu         1 OUW      -0.973200
@<TRIPOS>BOND
     1     1    10 1   
     2     1    12 1   
     3     1    13 1   
     4     1    14 1   
     5     2    15 1   
     6     2    16 1   
     7     2    17 1   
     8     2    23 1   
     9     3     4 ar  
    10     3     9 ar  
    11     3    18 1   
    12     4     7 ar  
    13     4    19 1   
    14     5     7 ar  
    15     5     8 ar  
    16     5    20 1   
    17     6     8 1   
    18     6    10 1   
    19     6    11 2   
    20     7    23 1   
    21     8     9 ar  
    22    10    21 1   
    23    22    23 1   
@<TRIPOS>SUBSTRUCTURE
     1 OUW         1 TEMP              0 ****  ****    0 ROOT
