@<TRIPOS>MOLECULE
OUZ
   42    43     1     0     0
SMALL
abcg2


@<TRIPOS>ATOM
      1 C13         10.0220   -13.2590   -25.7890 c6         1 OUZ       0.140800
      2 C15         11.9560   -11.6970   -26.1110 ca         1 OUZ      -0.081300
      3 C17         12.1470    -9.4340   -26.9420 ca         1 OUZ      -0.113000
      4 C20         12.5450   -11.2870   -24.9140 ca         1 OUZ      -0.094500
      5 C22         11.1180   -14.8520   -27.8330 c6         1 OUZ       0.124600
      6 C01          9.1160   -16.3810   -27.7120 c3         1 OUZ      -0.088100
      7 C02          9.6650   -14.9990   -27.3900 c6         1 OUZ       0.150500
      8 C05          9.1620   -15.4130   -23.6530 c3         1 OUZ       0.160800
      9 C07          6.8560   -14.5250   -23.6910 c3         1 OUZ       0.161800
     10 C08          6.6460   -14.0900   -22.2460 c3         1 OUZ      -0.089100
     11 C14         11.4820   -13.1150   -26.2560 c6         1 OUZ       0.175600
     12 C16         11.7590   -10.7580   -27.1230 ca         1 OUZ      -0.094500
     13 C18         12.7290    -9.0300   -25.7440 ca         1 OUZ      -0.106000
     14 C19         12.9270    -9.9620   -24.7290 ca         1 OUZ      -0.113000
     15 N03          9.4910   -14.6050   -25.9800 n3         1 OUZ      -0.739600
     16 N06          7.7280   -15.7000   -23.7950 n7         1 OUZ      -0.862400
     17 O21         11.5940   -13.5210   -27.6240 os         1 OUZ      -0.455000
     18 H1           9.4140   -12.5550   -26.3660 h1         1 OUZ       0.064700
     19 H2           9.9480   -12.9770   -24.7390 h1         1 OUZ       0.064700
     20 H3          11.9930    -8.7160   -27.7380 ha         1 OUZ       0.113000
     21 H4          12.7070   -12.0110   -24.1240 ha         1 OUZ       0.117500
     22 H5          11.7550   -15.5630   -27.2890 h1         1 OUZ       0.050700
     23 H6          11.2190   -15.0450   -28.9010 h1         1 OUZ       0.050700
     24 H7           8.1200   -16.5050   -27.2820 hc         1 OUZ       0.042367
     25 H8           9.0410   -16.5000   -28.7940 hc         1 OUZ       0.042367
     26 H9           9.7550   -17.1810   -27.3340 hc         1 OUZ       0.042367
     27 H10          9.0870   -14.2650   -27.9630 h1         1 OUZ       0.069700
     28 H11          9.7850   -16.5650   -25.3330 h1         1 OUZ       0.037200
     29 H12         11.0150   -15.4700   -24.7370 h1         1 OUZ       0.037200
     30 H13          9.6170   -16.0940   -22.9250 h1         1 OUZ       0.044700
     31 H14          9.2900   -14.4060   -23.2480 h1         1 OUZ       0.044700
     32 H15          7.2470   -13.6780   -24.2740 h1         1 OUZ       0.030700
     33 H16          5.8920   -14.7960   -24.1300 h1         1 OUZ       0.030700
     34 H17          5.9890   -13.2190   -22.1990 hc         1 OUZ       0.034367
     35 H18          6.1960   -14.8970   -21.6630 hc         1 OUZ       0.034367
     36 H19          7.5930   -13.8190   -21.7730 hc         1 OUZ       0.034367
     37 H20         12.1180   -13.7690   -25.6460 h1         1 OUZ       0.041700
     38 H21         11.3080   -11.0670   -28.0560 ha         1 OUZ       0.117500
     39 H22         13.0290    -8.0000   -25.6040 ha         1 OUZ       0.113000
     40 H23         13.3840    -9.6600   -23.7950 ha         1 OUZ       0.113000
     41 H25          7.5790   -16.1250   -24.7030 hn         1 OUZ       0.413000
     42 C04          9.9420   -15.5540   -24.9610 c3         1 OUZ       0.137800
@<TRIPOS>BOND
     1     1    11 1   
     2     1    15 1   
     3     1    18 1   
     4     1    19 1   
     5     2     4 ar  
     6     2    11 1   
     7     2    12 ar  
     8     3    12 ar  
     9     3    13 ar  
    10     3    20 1   
    11     4    14 ar  
    12     4    21 1   
    13     5     7 1   
    14     5    17 1   
    15     5    22 1   
    16     5    23 1   
    17     6     7 1   
    18     6    24 1   
    19     6    25 1   
    20     6    26 1   
    21     7    15 1   
    22     7    27 1   
    23     8    16 1   
    24     8    30 1   
    25     8    31 1   
    26     8    42 1   
    27     9    10 1   
    28     9    16 1   
    29     9    32 1   
    30     9    33 1   
    31    10    34 1   
    32    10    35 1   
    33    10    36 1   
    34    11    17 1   
    35    11    37 1   
    36    12    38 1   
    37    13    14 ar  
    38    13    39 1   
    39    14    40 1   
    40    15    42 1   
    41    16    41 1   
    42    28    42 1   
    43    29    42 1   
@<TRIPOS>SUBSTRUCTURE
     1 OUZ         1 TEMP              0 ****  ****    0 ROOT
