@<TRIPOS>MOLECULE
OUZ
   42    43     1     0     0
SMALL
No Charge or Current Charge


@<TRIPOS>ATOM
      1 C13          9.8180   -13.2580   -26.1770 c6         1 OUZ       0.140800
      2 C15         11.8360   -11.6580   -26.1650 ca         1 OUZ      -0.081300
      3 C17         11.9390    -9.4080   -27.1100 ca         1 OUZ      -0.113000
      4 C20         12.5730   -11.2100   -25.0490 ca         1 OUZ      -0.094500
      5 C22         11.4880   -15.0830   -27.6560 c6         1 OUZ       0.124600
      6 C01          9.4820   -16.6840   -27.9240 c3         1 OUZ      -0.088100
      7 C02          9.9310   -15.2320   -27.6060 c6         1 OUZ       0.150500
      8 C05          8.9650   -15.0560   -23.7950 c3         1 OUZ       0.160800
      9 C07          6.8000   -14.0410   -23.0260 c3         1 OUZ       0.161800
     10 C08          6.7470   -14.7070   -21.6360 c3         1 OUZ      -0.089100
     11 C14         11.3770   -13.1190   -26.2450 c6         1 OUZ       0.175600
     12 C16         11.5220   -10.7480   -27.1950 ca         1 OUZ      -0.094500
     13 C18         12.6720    -8.9680   -25.9960 ca         1 OUZ      -0.106000
     14 C19         12.9890    -9.8700   -24.9660 ca         1 OUZ      -0.113000
     15 N03          9.3670   -14.6860   -26.3210 n3         1 OUZ      -0.739600
     16 N06          7.5080   -14.8870   -24.0070 n7         1 OUZ      -0.862400
     17 O21         11.8670   -13.6950   -27.4810 os         1 OUZ      -0.455000
     18 H1           9.3840   -12.6520   -26.9860 h1         1 OUZ       0.064700
     19 H2           9.4570   -12.8100   -25.2410 h1         1 OUZ       0.064700
     20 H3          11.6950    -8.7110   -27.9090 ha         1 OUZ       0.113000
     21 H4          12.8220   -11.8990   -24.2450 ha         1 OUZ       0.117500
     22 H5          11.9610   -15.6930   -26.8730 h1         1 OUZ       0.050700
     23 H6          11.8640   -15.4310   -28.6290 h1         1 OUZ       0.050700
     24 H7           8.3940   -16.7890   -27.8350 hc         1 OUZ       0.042367
     25 H8           9.7560   -16.9580   -28.9490 hc         1 OUZ       0.042367
     26 H9           9.9520   -17.4150   -27.2560 hc         1 OUZ       0.042367
     27 H10          9.5360   -14.6210   -28.4330 h1         1 OUZ       0.069700
     28 H11          9.2980   -16.5560   -25.2830 h1         1 OUZ       0.037200
     29 H12         10.7290   -15.5980   -24.9250 h1         1 OUZ       0.037200
     30 H13          9.1620   -15.7870   -22.9980 h1         1 OUZ       0.044700
     31 H14          9.4250   -14.1080   -23.4860 h1         1 OUZ       0.044700
     32 H15          7.2830   -13.0580   -22.9410 h1         1 OUZ       0.030700
     33 H16          5.7690   -13.8700   -23.3640 h1         1 OUZ       0.030700
     34 H17          6.1600   -14.0900   -20.9460 hc         1 OUZ       0.034367
     35 H18          6.2750   -15.6950   -21.6960 hc         1 OUZ       0.034367
     36 H19          7.7520   -14.8230   -21.2130 hc         1 OUZ       0.034367
     37 H20         11.8230   -13.6740   -25.4070 h1         1 OUZ       0.041700
     38 H21         10.9590   -11.0800   -28.0640 ha         1 OUZ       0.117500
     39 H22         12.9950    -7.9310   -25.9300 ha         1 OUZ       0.113000
     40 H23         13.5570    -9.5300   -24.1020 ha         1 OUZ       0.113000
     41 H25          7.4280   -14.4420   -24.9320 hn         1 OUZ       0.413000
     42 C04          9.6490   -15.5310   -25.1080 c3         1 OUZ       0.137800
@<TRIPOS>BOND
     1     1    11 1   
     2     1    15 1   
     3     1    18 1   
     4     1    19 1   
     5     2     4 ar  
     6     2    11 1   
     7     2    12 ar  
     8     3    12 ar  
     9     3    13 ar  
    10     3    20 1   
    11     4    14 ar  
    12     4    21 1   
    13     5     7 1   
    14     5    17 1   
    15     5    22 1   
    16     5    23 1   
    17     6     7 1   
    18     6    24 1   
    19     6    25 1   
    20     6    26 1   
    21     7    15 1   
    22     7    27 1   
    23     8    16 1   
    24     8    30 1   
    25     8    31 1   
    26     8    42 1   
    27     9    10 1   
    28     9    16 1   
    29     9    32 1   
    30     9    33 1   
    31    10    34 1   
    32    10    35 1   
    33    10    36 1   
    34    11    17 1   
    35    11    37 1   
    36    12    38 1   
    37    13    14 ar  
    38    13    39 1   
    39    14    40 1   
    40    15    42 1   
    41    16    41 1   
    42    28    42 1   
    43    29    42 1   
@<TRIPOS>SUBSTRUCTURE
     1 OUZ         1 TEMP              0 ****  ****    0 ROOT
