@<TRIPOS>MOLECULE
OV1
   84    83     1     0     0
SMALL
No Charge or Current Charge


@<TRIPOS>ATOM
      1 C4          -6.4430    -0.3920     0.1200 c3         1 OV1      -0.155400
      2 C5          -5.2040    -0.2480    -0.7690 c          1 OV1       0.602100
      3 O1          -5.2080    -0.5440    -1.9550 o          1 OV1      -0.605100
      4 C1          -7.4650     0.7360    -0.1550 c3         1 OV1      -0.066400
      5 C2          -8.7270     0.6370     0.7300 c3         1 OV1      -0.077400
      6 C3          -9.7470     1.7640     0.4560 c3         1 OV1      -0.074400
      7 C29        -11.0060     1.6650     1.3390 c3         1 OV1      -0.089100
      8 N1          -4.0770     0.2040    -0.1220 ns         1 OV1      -0.495900
      9 C6          -2.7620     0.4560    -0.7610 c3         1 OV1       0.032700
     10 C10         -1.6110    -0.0160     0.1770 c          1 OV1       0.593100
     11 O2          -1.7880    -0.3380     1.3460 o          1 OV1      -0.617100
     12 C7          -2.6030     1.9510    -1.1910 c3         1 OV1      -0.067700
     13 C8          -2.6760     2.9340     0.0040 c3         1 OV1      -0.089100
     14 C9          -3.5960     2.3590    -2.3040 c3         1 OV1      -0.089100
     15 N2          -0.3590    -0.0500    -0.4010 ns         1 OV1      -0.490900
     16 C11          0.8950    -0.4310     0.2910 c3         1 OV1       0.032700
     17 C12          1.2030    -1.9430     0.1220 c3         1 OV1      -0.069400
     18 C13          0.1160    -2.8810     0.6950 c3         1 OV1      -0.033100
     19 S1           0.6160    -4.6550     0.5450 s4         1 OV1       0.162400
     20 O8           0.6420    -4.9900    -0.9290 o          1 OV1      -0.499000
     21 C14         -0.9400    -5.3690     1.2320 c3         1 OV1      -0.062800
     22 C15          2.0740     0.4440    -0.2250 c          1 OV1       0.590100
     23 O3           1.9980     1.1400    -1.2300 o          1 OV1      -0.600100
     24 N3           3.2220     0.3820     0.5350 ns         1 OV1      -0.506900
     25 O4           5.7630    -0.1580     1.9040 oh         1 OV1      -0.653000
     26 C16          4.4760     1.0870     0.2390 c3         1 OV1       0.080700
     27 C17          5.7090     0.1540     0.4990 c3         1 OV1       0.155300
     28 C28          5.9180     3.7120    -0.7430 c3         1 OV1      -0.089600
     29 C27          5.6680     4.6270     1.6190 c3         1 OV1      -0.089600
     30 C25          4.5080     2.4360     1.0130 c3         1 OV1      -0.082400
     31 C24          5.5610    -0.9380    -1.8490 c3         1 OV1       0.165600
     32 C23          6.9730    -2.0400    -0.0090 c3         1 OV1      -0.082100
     33 C22          5.7090    -1.1830    -0.3190 c3         1 OV1      -0.094700
     34 H40         -6.9210    -1.3550    -0.0950 hc         1 OV1       0.057200
     35 H41         -6.1540    -0.3460     1.1770 hc         1 OV1       0.057200
     36 H42         -6.9820     1.7080     0.0120 hc         1 OV1       0.054700
     37 H43         -7.7620     0.7060    -1.2110 hc         1 OV1       0.054700
     38 H44         -9.2090    -0.3340     0.5620 hc         1 OV1       0.035700
     39 H45         -8.4300     0.6690     1.7860 hc         1 OV1       0.035700
     40 H46         -9.2680     2.7370     0.6250 hc         1 OV1       0.039700
     41 H47        -10.0480     1.7340    -0.5980 hc         1 OV1       0.039700
     42 H48        -11.5270     0.7160     1.1670 hc         1 OV1       0.031367
     43 H49        -10.7410     1.7280     2.4020 hc         1 OV1       0.031367
     44 H50        -11.6980     2.4840     1.1100 hc         1 OV1       0.031367
     45 H39         -4.1600     0.3700     0.8740 hn         1 OV1       0.327500
     46 H31         -2.6850    -0.1700    -1.6600 h1         1 OV1       0.096700
     47 H32         -1.6010     2.0590    -1.6270 hc         1 OV1       0.055700
     48 H36         -1.9200     2.6940     0.7610 hc         1 OV1       0.038867
     49 H37         -2.4940     3.9620    -0.3330 hc         1 OV1       0.038867
     50 H38         -3.6630     2.9050     0.4810 hc         1 OV1       0.038867
     51 H33         -4.6290     2.3590    -1.9350 hc         1 OV1       0.038867
     52 H34         -3.3700     3.3680    -2.6720 hc         1 OV1       0.038867
     53 H35         -3.5330     1.6700    -3.1540 hc         1 OV1       0.038867
     54 H30         -0.2890     0.2670    -1.3630 hn         1 OV1       0.340500
     55 H9           0.7910    -0.2090     1.3620 h1         1 OV1       0.085700
     56 H7           2.1540    -2.1750     0.6180 hc         1 OV1       0.062700
     57 H8           1.3440    -2.1640    -0.9440 hc         1 OV1       0.062700
     58 H5          -0.8290    -2.7510     0.1550 h1         1 OV1       0.083700
     59 H6          -0.0460    -2.6650     1.7580 h1         1 OV1       0.083700
     60 H2          -0.9130    -6.4580     1.1070 h1         1 OV1       0.079700
     61 H3          -1.0080    -5.1170     2.2970 h1         1 OV1       0.079700
     62 H4          -1.7980    -4.9530     0.6900 h1         1 OV1       0.079700
     63 H10          3.2040    -0.2130     1.3560 hn         1 OV1       0.312500
     64 H29          6.6060    -0.6320     2.0630 ho         1 OV1       0.436000
     65 H28          5.3970    -1.9600    -3.5140 ho         1 OV1       0.446000
     66 H11          4.4720     1.3430    -0.8270 h1         1 OV1       0.086700
     67 H21          6.6110     0.7100     0.2070 h1         1 OV1       0.079700
     68 H14          6.6410     2.8090     1.0700 hc         1 OV1       0.053700
     69 H15          5.0170     4.1980    -1.1360 hc         1 OV1       0.034200
     70 H16          6.7620     4.3980    -0.8760 hc         1 OV1       0.034200
     71 H17          6.1220     2.8200    -1.3460 hc         1 OV1       0.034200
     72 H18          4.7920     5.2320     1.3520 hc         1 OV1       0.034200
     73 H19          5.5970     4.3710     2.6830 hc         1 OV1       0.034200
     74 H20          6.5650     5.2430     1.4800 hc         1 OV1       0.034200
     75 H12          3.6010     2.9990     0.7590 hc         1 OV1       0.047700
     76 H13          4.4440     2.2280     2.0880 hc         1 OV1       0.047700
     77 H26          4.6530    -0.3560    -2.0470 h1         1 OV1       0.023200
     78 H27          6.4190    -0.3520    -2.2060 h1         1 OV1       0.023200
     79 H23          7.8870    -1.5000    -0.2850 hc         1 OV1       0.040700
     80 H24          7.0340    -2.3000     1.0540 hc         1 OV1       0.040700
     81 H25          6.9580    -2.9860    -0.5640 hc         1 OV1       0.040700
     82 H22          4.8380    -1.7700    -0.0020 hc         1 OV1       0.059700
     83 C26          5.7410     3.3500     0.7520 c3         1 OV1      -0.058700
     84 O7           5.4760    -2.1800    -2.5590 oh         1 OV1      -0.659000
@<TRIPOS>BOND
     1     1     2 1   
     2     1     4 1   
     3     1    34 1   
     4     1    35 1   
     5     2     3 2   
     6     2     8 1   
     7     4     5 1   
     8     4    36 1   
     9     4    37 1   
    10     5     6 1   
    11     5    38 1   
    12     5    39 1   
    13     6     7 1   
    14     6    40 1   
    15     6    41 1   
    16     7    42 1   
    17     7    43 1   
    18     7    44 1   
    19     8     9 1   
    20     8    45 1   
    21     9    10 1   
    22     9    12 1   
    23     9    46 1   
    24    10    11 2   
    25    10    15 1   
    26    12    13 1   
    27    12    14 1   
    28    12    47 1   
    29    13    48 1   
    30    13    49 1   
    31    13    50 1   
    32    14    51 1   
    33    14    52 1   
    34    14    53 1   
    35    15    16 1   
    36    15    54 1   
    37    16    17 1   
    38    16    22 1   
    39    16    55 1   
    40    17    18 1   
    41    17    56 1   
    42    17    57 1   
    43    18    19 1   
    44    18    58 1   
    45    18    59 1   
    46    19    20 2   
    47    19    21 1   
    48    21    60 1   
    49    21    61 1   
    50    21    62 1   
    51    22    23 2   
    52    22    24 1   
    53    24    26 1   
    54    24    63 1   
    55    25    27 1   
    56    25    64 1   
    57    26    27 1   
    58    26    30 1   
    59    26    66 1   
    60    27    33 1   
    61    27    67 1   
    62    28    69 1   
    63    28    70 1   
    64    28    71 1   
    65    28    83 1   
    66    29    72 1   
    67    29    73 1   
    68    29    74 1   
    69    29    83 1   
    70    30    75 1   
    71    30    76 1   
    72    30    83 1   
    73    31    33 1   
    74    31    77 1   
    75    31    78 1   
    76    31    84 1   
    77    32    33 1   
    78    32    79 1   
    79    32    80 1   
    80    32    81 1   
    81    33    82 1   
    82    65    84 1   
    83    68    83 1   
@<TRIPOS>SUBSTRUCTURE
     1 OV1         1 TEMP              0 ****  ****    0 ROOT
