@<TRIPOS>MOLECULE
OV1
   84    83     1     0     0
SMALL
bcc


@<TRIPOS>ATOM
      1 C4          -6.0800     0.2780     0.4900 c3         1 OV1      -0.155400
      2 C5          -4.8840     0.2950    -0.4380 c          1 OV1       0.669100
      3 O1          -4.8890    -0.2690    -1.5230 o          1 OV1      -0.605100
      4 C1          -7.4130     0.2530    -0.2460 c3         1 OV1      -0.066400
      5 C2          -8.5960     0.2370     0.7150 c3         1 OV1      -0.077400
      6 C3          -9.9410     0.2070     0.0010 c3         1 OV1      -0.074400
      7 C29        -11.1180     0.1990     0.9660 c3         1 OV1      -0.089100
      8 N1          -3.8170     0.9670     0.0380 ns         1 OV1      -0.562900
      9 C6          -2.5440     1.0400    -0.6270 c3         1 OV1       0.032700
     10 C10         -1.4480     0.5520     0.3170 c          1 OV1       0.660100
     11 O2          -1.5940     0.5250     1.5290 o          1 OV1      -0.617100
     12 C7          -2.2310     2.4580    -1.1550 c3         1 OV1      -0.067700
     13 C8          -2.1300     3.4900    -0.0380 c3         1 OV1      -0.089100
     14 C9          -3.2710     2.8790    -2.1870 c3         1 OV1      -0.089100
     15 N2          -0.3170     0.1820    -0.3070 ns         1 OV1      -0.557900
     16 C11          0.8680    -0.2780     0.3680 c3         1 OV1       0.032700
     17 C12          1.0370    -1.8010     0.2500 c3         1 OV1      -0.069400
     18 C13         -0.1010    -2.5530     0.9140 c3         1 OV1      -0.033100
     19 S1           0.1190    -4.3400     0.6630 s4         1 OV1       0.135600
     20 O8          -0.0100    -4.5770    -0.8250 o          1 OV1      -0.472200
     21 C14         -1.4370    -4.8600     1.4090 c3         1 OV1      -0.062800
     22 C15          2.0920     0.3910    -0.2550 c          1 OV1       0.657100
     23 O3           2.1140     0.6760    -1.4420 o          1 OV1      -0.600100
     24 N3           3.1160     0.5630     0.5920 ns         1 OV1      -0.573900
     25 O4           5.6400    -0.4760     1.6010 oh         1 OV1      -0.590800
     26 C16          4.4180     1.1010     0.2340 c3         1 OV1       0.080700
     27 C17          5.4890    -0.0050     0.2780 c3         1 OV1       0.132100
     28 C28          6.2100     3.4890    -0.5140 c3         1 OV1      -0.089600
     29 C27          6.2500     4.1100     1.9160 c3         1 OV1      -0.089600
     30 C25          4.7360     2.2770     1.1600 c3         1 OV1      -0.082400
     31 C24          5.3840    -0.6400    -2.1520 c3         1 OV1       0.142400
     32 C23          6.2390    -2.2970    -0.4760 c3         1 OV1      -0.082100
     33 C22          5.2570    -1.1520    -0.7210 c3         1 OV1      -0.094700
     34 H40         -5.9910    -0.6140     1.1210 hc         1 OV1       0.057200
     35 H41         -6.0420     1.1330     1.1700 hc         1 OV1       0.057200
     36 H42         -7.4890     1.1270    -0.9000 hc         1 OV1       0.054700
     37 H43         -7.4600    -0.6240    -0.8950 hc         1 OV1       0.054700
     38 H44         -8.5160    -0.6320     1.3770 hc         1 OV1       0.035700
     39 H45         -8.5500     1.1180     1.3650 hc         1 OV1       0.035700
     40 H46        -10.0180     1.0740    -0.6640 hc         1 OV1       0.039700
     41 H47         -9.9890    -0.6750    -0.6460 hc         1 OV1       0.039700
     42 H48        -11.0840    -0.6750     1.6200 hc         1 OV1       0.031367
     43 H49        -11.1110     1.0860     1.6020 hc         1 OV1       0.031367
     44 H50        -12.0720     0.1790     0.4380 hc         1 OV1       0.031367
     45 H39         -3.8750     1.3510     0.9680 hn         1 OV1       0.327500
     46 H31         -2.5830     0.3660    -1.4860 h1         1 OV1       0.096700
     47 H32         -1.2610     2.4000    -1.6600 hc         1 OV1       0.055700
     48 H36         -1.3310     3.2700     0.6710 hc         1 OV1       0.038867
     49 H37         -1.9250     4.4760    -0.4560 hc         1 OV1       0.038867
     50 H38         -3.0660     3.5660     0.5190 hc         1 OV1       0.038867
     51 H33         -4.2520     3.0080    -1.7280 hc         1 OV1       0.038867
     52 H34         -2.9920     3.8320    -2.6380 hc         1 OV1       0.038867
     53 H35         -3.3670     2.1450    -2.9880 hc         1 OV1       0.038867
     54 H30         -0.2840     0.2040    -1.3160 hn         1 OV1       0.340500
     55 H9           0.7830    -0.0040     1.4220 h1         1 OV1       0.085700
     56 H7           1.9880    -2.0890     0.7070 hc         1 OV1       0.062700
     57 H8           1.0920    -2.0700    -0.8080 hc         1 OV1       0.062700
     58 H5          -1.0690    -2.2850     0.4860 h1         1 OV1       0.083700
     59 H6          -0.1250    -2.3780     1.9910 h1         1 OV1       0.083700
     60 H2          -1.5170    -5.9380     1.2850 h1         1 OV1       0.079700
     61 H3          -1.4320    -4.6180     2.4700 h1         1 OV1       0.079700
     62 H4          -2.2680    -4.3640     0.9090 h1         1 OV1       0.079700
     63 H10          2.9490     0.3800     1.5700 hn         1 OV1       0.312500
     64 H29          4.9100    -1.0680     1.8080 ho         1 OV1       0.397000
     65 H28          5.1630    -1.3480    -3.9410 ho         1 OV1       0.407000
     66 H11          4.3340     1.4760    -0.7860 h1         1 OV1       0.086700
     67 H21          6.4500     0.4530     0.0230 h1         1 OV1       0.079700
     68 H14          6.8840     2.2520     1.0930 hc         1 OV1       0.053700
     69 H15          5.4130     4.2000    -0.7470 hc         1 OV1       0.034200
     70 H16          7.1620     4.0030    -0.6530 hc         1 OV1       0.034200
     71 H17          6.1650     2.6890    -1.2550 hc         1 OV1       0.034200
     72 H18          5.4680     4.8620     1.7900 hc         1 OV1       0.034200
     73 H19          6.1990     3.7460     2.9440 hc         1 OV1       0.034200
     74 H20          7.2130     4.6080     1.7870 hc         1 OV1       0.034200
     75 H12          3.9340     3.0140     1.0470 hc         1 OV1       0.047700
     76 H13          4.6990     1.9380     2.2000 hc         1 OV1       0.047700
     77 H26          4.7040     0.2000    -2.3220 h1         1 OV1       0.023200
     78 H27          6.4070    -0.2630    -2.2990 h1         1 OV1       0.023200
     79 H23          7.2710    -1.9420    -0.5440 hc         1 OV1       0.040700
     80 H24          6.1060    -2.7500     0.5040 hc         1 OV1       0.040700
     81 H25          6.1080    -3.0840    -1.2170 hc         1 OV1       0.040700
     82 H22          4.2360    -1.5340    -0.5880 hc         1 OV1       0.059700
     83 C26          6.0770     2.9720     0.9150 c3         1 OV1      -0.058700
     84 O7           5.0910    -1.6910    -3.0460 oh         1 OV1      -0.596800
@<TRIPOS>BOND
     1     1     2 1   
     2     1     4 1   
     3     1    34 1   
     4     1    35 1   
     5     2     3 2   
     6     2     8 1   
     7     4     5 1   
     8     4    36 1   
     9     4    37 1   
    10     5     6 1   
    11     5    38 1   
    12     5    39 1   
    13     6     7 1   
    14     6    40 1   
    15     6    41 1   
    16     7    42 1   
    17     7    43 1   
    18     7    44 1   
    19     8     9 1   
    20     8    45 1   
    21     9    10 1   
    22     9    12 1   
    23     9    46 1   
    24    10    11 2   
    25    10    15 1   
    26    12    13 1   
    27    12    14 1   
    28    12    47 1   
    29    13    48 1   
    30    13    49 1   
    31    13    50 1   
    32    14    51 1   
    33    14    52 1   
    34    14    53 1   
    35    15    16 1   
    36    15    54 1   
    37    16    17 1   
    38    16    22 1   
    39    16    55 1   
    40    17    18 1   
    41    17    56 1   
    42    17    57 1   
    43    18    19 1   
    44    18    58 1   
    45    18    59 1   
    46    19    20 2   
    47    19    21 1   
    48    21    60 1   
    49    21    61 1   
    50    21    62 1   
    51    22    23 2   
    52    22    24 1   
    53    24    26 1   
    54    24    63 1   
    55    25    27 1   
    56    25    64 1   
    57    26    27 1   
    58    26    30 1   
    59    26    66 1   
    60    27    33 1   
    61    27    67 1   
    62    28    69 1   
    63    28    70 1   
    64    28    71 1   
    65    28    83 1   
    66    29    72 1   
    67    29    73 1   
    68    29    74 1   
    69    29    83 1   
    70    30    75 1   
    71    30    76 1   
    72    30    83 1   
    73    31    33 1   
    74    31    77 1   
    75    31    78 1   
    76    31    84 1   
    77    32    33 1   
    78    32    79 1   
    79    32    80 1   
    80    32    81 1   
    81    33    82 1   
    82    65    84 1   
    83    68    83 1   
@<TRIPOS>SUBSTRUCTURE
     1 OV1         1 TEMP              0 ****  ****    0 ROOT
