@<TRIPOS>MOLECULE
OV2
   89    88     1     0     0
SMALL
bcc


@<TRIPOS>ATOM
      1 C4           5.8440    -0.3850     0.4050 c3         1 OV2      -0.155400
      2 C5           4.6550    -0.3960    -0.5320 c          1 OV2       0.670100
      3 O1           4.6760     0.1550    -1.6230 o          1 OV2      -0.608100
      4 C1           7.1830    -0.3930    -0.3200 c3         1 OV2      -0.066400
      5 C2           8.3590    -0.3800     0.6490 c3         1 OV2      -0.077400
      6 C3           9.7100    -0.3840    -0.0550 c3         1 OV2      -0.074400
      7 C29         10.8800    -0.3760     0.9190 c3         1 OV2      -0.089100
      8 N1           3.5760    -1.0490    -0.0560 ns         1 OV2      -0.561900
      9 C6           2.3050    -1.1110    -0.7250 c3         1 OV2       0.031700
     10 C10          1.2150    -0.5860     0.2070 c          1 OV2       0.658100
     11 O2           1.3700    -0.5150     1.4160 o          1 OV2      -0.618100
     12 C7           1.9700    -2.5330    -1.2280 c3         1 OV2      -0.066700
     13 C8           1.8480    -3.5420    -0.0910 c3         1 OV2      -0.089100
     14 C9           3.0070    -2.9900    -2.2470 c3         1 OV2      -0.089100
     15 C15         -2.3200    -0.4910    -0.2760 c          1 OV2       0.660100
     16 C14         -0.3400     4.0750     0.3390 c          1 OV2       0.670100
     17 N2           0.0820    -0.2350    -0.4240 ns         1 OV2      -0.560900
     18 O8          -1.3630     4.5130    -0.1740 o          1 OV2      -0.606100
     19 N3           0.6580     4.8810     0.7620 n          1 OV2      -0.475800
     20 C30          0.6020     6.3060     0.5120 c3         1 OV2       0.082800
     21 C31          1.9310     4.3920     1.2510 c3         1 OV2       0.082800
     22 C11         -1.0960     0.2610     0.2400 c3         1 OV2       0.021700
     23 C12         -1.3020     1.7630    -0.0040 c3         1 OV2      -0.077400
     24 N4          -3.3240    -0.5780     0.6100 ns         1 OV2      -0.569900
     25 O4          -5.7600     0.7270     1.3610 oh         1 OV2      -0.590800
     26 C16         -4.6290    -1.1600     0.3490 c3         1 OV2       0.078700
     27 C17         -5.6920    -0.0540     0.1870 c3         1 OV2       0.133100
     28 C28         -4.5280    -4.1770     2.8150 c3         1 OV2      -0.091100
     29 C27         -3.8270    -4.1160     0.4070 c3         1 OV2      -0.091100
     30 C25         -5.0050    -2.1310     1.4660 c3         1 OV2      -0.088400
     31 C24         -5.6460    -0.0230    -2.3330 c3         1 OV2       0.142400
     32 C23         -6.5550     1.9490    -1.0760 c3         1 OV2      -0.081100
     33 C22         -5.5240     0.8200    -1.0680 c3         1 OV2      -0.092700
     34 H42          5.7660     0.5170     1.0230 hc         1 OV2       0.057200
     35 H43          5.7860    -1.2290     1.0980 hc         1 OV2       0.057200
     36 H44          7.2500    -1.2790    -0.9590 hc         1 OV2       0.054200
     37 H45          7.2480     0.4710    -0.9840 hc         1 OV2       0.054200
     38 H46          8.2880     0.5020     1.2950 hc         1 OV2       0.035700
     39 H47          8.2940    -1.2480     1.3140 hc         1 OV2       0.035700
     40 H48          9.7770    -1.2620    -0.7040 hc         1 OV2       0.039200
     41 H49          9.7750     0.4860    -0.7170 hc         1 OV2       0.039200
     42 H50         10.8540     0.5100     1.5570 hc         1 OV2       0.032033
     43 H51         10.8550    -1.2520     1.5690 hc         1 OV2       0.032033
     44 H52         11.8380    -0.3780     0.3970 hc         1 OV2       0.032033
     45 H41          3.6230    -1.4170     0.8800 hn         1 OV2       0.327500
     46 H33          2.3590    -0.4540    -1.5950 h1         1 OV2       0.094700
     47 H34          1.0030    -2.4700    -1.7370 hc         1 OV2       0.056700
     48 H38          1.0550    -3.2920     0.6150 hc         1 OV2       0.039200
     49 H39          1.6210    -4.5310    -0.4910 hc         1 OV2       0.039200
     50 H40          2.7830    -3.6290     0.4660 hc         1 OV2       0.039200
     51 H35          2.7140    -3.9470    -2.6820 hc         1 OV2       0.039200
     52 H36          3.1180    -2.2730    -3.0610 hc         1 OV2       0.039200
     53 H37          3.9840    -3.1270    -1.7810 hc         1 OV2       0.039200
     54 H7           0.7880     2.2780     0.0530 hc         1 OV2       0.066200
     55 H8          -0.0090     2.3700     1.6030 hc         1 OV2       0.066200
     56 H32          0.0400    -0.3070    -1.4300 hn         1 OV2       0.337500
     57 H4          -0.4100     6.6140     0.2750 h1         1 OV2       0.042700
     58 H5           0.9340     6.8470     1.3980 h1         1 OV2       0.042700
     59 H6           1.2550     6.5870    -0.3190 h1         1 OV2       0.042700
     60 H1           2.6550     4.2560     0.4430 h1         1 OV2       0.042700
     61 H2           2.3430     5.1170     1.9520 h1         1 OV2       0.042700
     62 H3           1.8290     3.4530     1.7870 h1         1 OV2       0.042700
     63 H11         -0.9710     0.0860     1.3110 h1         1 OV2       0.086700
     64 H9          -2.2350     2.0700     0.4740 hc         1 OV2       0.068700
     65 H10         -1.4250     1.9360    -1.0760 hc         1 OV2       0.068700
     66 H12         -3.1340    -0.2900     1.5580 hn         1 OV2       0.315500
     67 H31         -4.9820     1.2950     1.3950 ho         1 OV2       0.402000
     68 H30         -5.5640     0.2540    -4.2470 ho         1 OV2       0.404000
     69 H13         -4.5620    -1.7200    -0.5830 h1         1 OV2       0.083700
     70 H23         -6.6640    -0.5570     0.1160 h1         1 OV2       0.074700
     71 H16         -3.0610    -2.8820     1.9730 hc         1 OV2       0.043700
     72 H17         -5.4920    -4.6290     2.5700 hc         1 OV2       0.035200
     73 H18         -3.8270    -4.9880     3.0200 hc         1 OV2       0.035200
     74 H19         -4.6550    -3.6070     3.7370 hc         1 OV2       0.035200
     75 H20         -3.2030    -4.9880     0.6100 hc         1 OV2       0.035200
     76 H21         -4.7820    -4.4740     0.0150 hc         1 OV2       0.035200
     77 H22         -3.3360    -3.5450    -0.3820 hc         1 OV2       0.035200
     78 H14         -5.1120    -1.5820     2.4070 hc         1 OV2       0.053200
     79 H15         -5.9950    -2.5370     1.2330 hc         1 OV2       0.053200
     80 H28         -4.8820    -0.8060    -2.3420 h1         1 OV2       0.021700
     81 H29         -6.6250    -0.5260    -2.3290 h1         1 OV2       0.021700
     82 H25         -7.5710     1.5450    -1.0740 hc         1 OV2       0.041367
     83 H26         -6.4550     2.5980    -0.2090 hc         1 OV2       0.041367
     84 H27         -6.4480     2.5720    -1.9620 hc         1 OV2       0.041367
     85 H24         -4.5200     1.2670    -1.0540 hc         1 OV2       0.064700
     86 O3          -2.3660    -0.9090    -1.4220 o          1 OV2      -0.605100
     87 C13         -0.1440     2.5830     0.5380 c3         1 OV2      -0.156400
     88 C26         -4.0320    -3.2930     1.6750 c3         1 OV2      -0.059700
     89 O7          -5.5020     0.8080    -3.4640 oh         1 OV2      -0.594800
@<TRIPOS>BOND
     1     1     2 1   
     2     1     4 1   
     3     1    34 1   
     4     1    35 1   
     5     2     3 2   
     6     2     8 1   
     7     4     5 1   
     8     4    36 1   
     9     4    37 1   
    10     5     6 1   
    11     5    38 1   
    12     5    39 1   
    13     6     7 1   
    14     6    40 1   
    15     6    41 1   
    16     7    42 1   
    17     7    43 1   
    18     7    44 1   
    19     8     9 1   
    20     8    45 1   
    21     9    10 1   
    22     9    12 1   
    23     9    46 1   
    24    10    11 2   
    25    10    17 1   
    26    12    13 1   
    27    12    14 1   
    28    12    47 1   
    29    13    48 1   
    30    13    49 1   
    31    13    50 1   
    32    14    51 1   
    33    14    52 1   
    34    14    53 1   
    35    15    22 1   
    36    15    24 1   
    37    15    86 2   
    38    16    18 2   
    39    16    19 1   
    40    16    87 1   
    41    17    22 1   
    42    17    56 1   
    43    19    20 1   
    44    19    21 1   
    45    20    57 1   
    46    20    58 1   
    47    20    59 1   
    48    21    60 1   
    49    21    61 1   
    50    21    62 1   
    51    22    23 1   
    52    22    63 1   
    53    23    64 1   
    54    23    65 1   
    55    23    87 1   
    56    24    26 1   
    57    24    66 1   
    58    25    27 1   
    59    25    67 1   
    60    26    27 1   
    61    26    30 1   
    62    26    69 1   
    63    27    33 1   
    64    27    70 1   
    65    28    72 1   
    66    28    73 1   
    67    28    74 1   
    68    28    88 1   
    69    29    75 1   
    70    29    76 1   
    71    29    77 1   
    72    29    88 1   
    73    30    78 1   
    74    30    79 1   
    75    30    88 1   
    76    31    33 1   
    77    31    80 1   
    78    31    81 1   
    79    31    89 1   
    80    32    33 1   
    81    32    82 1   
    82    32    83 1   
    83    32    84 1   
    84    33    85 1   
    85    54    87 1   
    86    55    87 1   
    87    68    89 1   
    88    71    88 1   
@<TRIPOS>SUBSTRUCTURE
     1 OV2         1 TEMP              0 ****  ****    0 ROOT
