@<TRIPOS>MOLECULE
OV2
   89    88     1     0     0
SMALL
No Charge or Current Charge


@<TRIPOS>ATOM
      1 C4           6.1870     0.2580     0.0140 c3         1 OV2      -0.155400
      2 C5           4.9380     0.1960    -0.8700 c          1 OV2       0.603100
      3 O1           4.9350     0.5800    -2.0310 o          1 OV2      -0.608100
      4 C1           7.1930    -0.8580    -0.3550 c3         1 OV2      -0.066400
      5 C2           8.4640    -0.8400     0.5230 c3         1 OV2      -0.077400
      6 C3           9.4670    -1.9550     0.1550 c3         1 OV2      -0.074400
      7 C29         10.7350    -1.9370     1.0310 c3         1 OV2      -0.089100
      8 N1           3.8120    -0.2920    -0.2490 ns         1 OV2      -0.494900
      9 C6           2.4880    -0.4780    -0.8900 c3         1 OV2       0.031700
     10 C10          1.3530    -0.0630     0.0940 c          1 OV2       0.591100
     11 O2           1.5470     0.1670     1.2820 o          1 OV2      -0.618100
     12 C7           2.3020    -1.9330    -1.4310 c3         1 OV2      -0.066700
     13 C8           2.3630    -3.0040    -0.3140 c3         1 OV2      -0.089100
     14 C9           3.2840    -2.2720    -2.5770 c3         1 OV2      -0.089100
     15 C15         -2.3240    -0.5020    -0.2480 c          1 OV2       0.593100
     16 C14         -0.7140     4.3410     0.6700 c          1 OV2       0.603100
     17 N2           0.0950     0.0290    -0.4670 ns         1 OV2      -0.493900
     18 O8          -1.7900     4.7430     0.2420 o          1 OV2      -0.606100
     19 N3           0.2500     5.2570     1.1540 n          1 OV2      -0.408800
     20 C30         -0.0350     6.7100     1.1450 c3         1 OV2       0.082800
     21 C31          1.5590     4.8110     1.6900 c3         1 OV2       0.082800
     22 C11         -1.1460     0.3760     0.2630 c3         1 OV2       0.021700
     23 C12         -1.4760     1.8880     0.1340 c3         1 OV2      -0.077400
     24 N4          -3.4340    -0.5180     0.5720 ns         1 OV2      -0.502900
     25 O4          -6.1400     0.4740     1.1750 oh         1 OV2      -0.653000
     26 C16         -4.6660    -1.2880     0.3230 c3         1 OV2       0.078700
     27 C17         -5.8900    -0.3550     0.0250 c3         1 OV2       0.156300
     28 C28         -4.1240    -4.1110     3.0720 c3         1 OV2      -0.091100
     29 C27         -3.5070    -4.2360     0.6080 c3         1 OV2      -0.091100
     30 C25         -4.9340    -2.2710     1.4980 c3         1 OV2      -0.088400
     31 C24         -5.5390    -0.2860    -2.5400 c3         1 OV2       0.165600
     32 C23         -6.9580     1.5180    -1.4060 c3         1 OV2      -0.081100
     33 C22         -5.7450     0.5530    -1.2460 c3         1 OV2      -0.092700
     34 H42          6.6750     1.2290    -0.1320 hc         1 OV2       0.057200
     35 H43          5.9070     0.1360     1.0680 hc         1 OV2       0.057200
     36 H44          6.7000    -1.8340    -0.2570 hc         1 OV2       0.054200
     37 H45          7.4800    -0.7510    -1.4090 hc         1 OV2       0.054200
     38 H46          8.9560     0.1350     0.4230 hc         1 OV2       0.035700
     39 H47          8.1760    -0.9480     1.5760 hc         1 OV2       0.035700
     40 H48          8.9790    -2.9320     0.2550 hc         1 OV2       0.039200
     41 H49          9.7600    -1.8490    -0.8970 hc         1 OV2       0.039200
     42 H50         11.2670    -0.9840     0.9250 hc         1 OV2       0.032033
     43 H51         10.4790    -2.0770     2.0880 hc         1 OV2       0.032033
     44 H52         11.4160    -2.7440     0.7330 hc         1 OV2       0.032033
     45 H41          3.9020    -0.5340     0.7320 hn         1 OV2       0.327500
     46 H33          2.4100     0.2160    -1.7380 h1         1 OV2       0.094700
     47 H34          1.2970    -1.9910    -1.8690 hc         1 OV2       0.056700
     48 H38          1.6130    -2.8110     0.4620 hc         1 OV2       0.039200
     49 H39          2.1650    -4.0010    -0.7260 hc         1 OV2       0.039200
     50 H40          3.3520    -3.0250     0.1610 hc         1 OV2       0.039200
     51 H35          3.0400    -3.2460    -3.0180 hc         1 OV2       0.039200
     52 H36          3.2290    -1.5190    -3.3720 hc         1 OV2       0.039200
     53 H37          4.3180    -2.3160    -2.2140 hc         1 OV2       0.039200
     54 H7           0.5740     2.7020     0.1690 hc         1 OV2       0.066200
     55 H8          -0.1050     2.5660     1.7170 hc         1 OV2       0.066200
     56 H32          0.0130    -0.2150    -1.4490 hn         1 OV2       0.337500
     57 H4          -0.9030     6.9200     1.7840 h1         1 OV2       0.042700
     58 H5           0.8240     7.2830     1.5180 h1         1 OV2       0.042700
     59 H6          -0.2560     7.0370     0.1210 h1         1 OV2       0.042700
     60 H1           2.1230     4.2840     0.9090 h1         1 OV2       0.042700
     61 H2           2.1540     5.6680     2.0290 h1         1 OV2       0.042700
     62 H3           1.4040     4.1380     2.5430 h1         1 OV2       0.042700
     63 H11         -1.0140     0.1310     1.3260 h1         1 OV2       0.086700
     64 H9          -2.4150     2.0930     0.6630 hc         1 OV2       0.068700
     65 H10         -1.6550     2.1270    -0.9220 hc         1 OV2       0.068700
     66 H12         -3.3700     0.0080     1.4350 hn         1 OV2       0.315500
     67 H31         -5.5130     1.2250     1.1290 ho         1 OV2       0.441000
     68 H30         -5.1500    -0.0200    -4.4420 ho         1 OV2       0.443000
     69 H13         -4.5150    -1.9130    -0.5640 h1         1 OV2       0.083700
     70 H23         -6.7580    -1.0080    -0.1420 h1         1 OV2       0.074700
     71 H16         -2.8810    -2.7350     2.0110 hc         1 OV2       0.043700
     72 H17         -5.0340    -4.7070     2.9340 hc         1 OV2       0.035200
     73 H18         -3.3010    -4.7940     3.3150 hc         1 OV2       0.035200
     74 H19         -4.2740    -3.4480     3.9330 hc         1 OV2       0.035200
     75 H20         -2.7360    -4.9690     0.8760 hc         1 OV2       0.035200
     76 H21         -4.4090    -4.7840     0.3110 hc         1 OV2       0.035200
     77 H22         -3.1400    -3.6780    -0.2600 hc         1 OV2       0.035200
     78 H14         -5.1240    -1.6870     2.4070 hc         1 OV2       0.053200
     79 H15         -5.8600    -2.8220     1.2900 hc         1 OV2       0.053200
     80 H28         -4.6910    -0.9680    -2.4160 h1         1 OV2       0.021700
     81 H29         -6.4330    -0.8990    -2.7190 h1         1 OV2       0.021700
     82 H25         -7.8920     0.9530    -1.5180 hc         1 OV2       0.041367
     83 H26         -7.0630     2.1820    -0.5400 hc         1 OV2       0.041367
     84 H27         -6.8430     2.1610    -2.2860 hc         1 OV2       0.041367
     85 H24         -4.8500     1.1740    -1.1170 hc         1 OV2       0.064700
     86 O3          -2.2740    -1.1360    -1.2940 o          1 OV2      -0.605100
     87 C13         -0.3800     2.8350     0.6910 c3         1 OV2      -0.156400
     88 C26         -3.8010    -3.2940     1.8000 c3         1 OV2      -0.059700
     89 O7          -5.2890     0.5660    -3.6650 oh         1 OV2      -0.657000
@<TRIPOS>BOND
     1     1     2 1   
     2     1     4 1   
     3     1    34 1   
     4     1    35 1   
     5     2     3 2   
     6     2     8 1   
     7     4     5 1   
     8     4    36 1   
     9     4    37 1   
    10     5     6 1   
    11     5    38 1   
    12     5    39 1   
    13     6     7 1   
    14     6    40 1   
    15     6    41 1   
    16     7    42 1   
    17     7    43 1   
    18     7    44 1   
    19     8     9 1   
    20     8    45 1   
    21     9    10 1   
    22     9    12 1   
    23     9    46 1   
    24    10    11 2   
    25    10    17 1   
    26    12    13 1   
    27    12    14 1   
    28    12    47 1   
    29    13    48 1   
    30    13    49 1   
    31    13    50 1   
    32    14    51 1   
    33    14    52 1   
    34    14    53 1   
    35    15    22 1   
    36    15    24 1   
    37    15    86 2   
    38    16    18 2   
    39    16    19 1   
    40    16    87 1   
    41    17    22 1   
    42    17    56 1   
    43    19    20 1   
    44    19    21 1   
    45    20    57 1   
    46    20    58 1   
    47    20    59 1   
    48    21    60 1   
    49    21    61 1   
    50    21    62 1   
    51    22    23 1   
    52    22    63 1   
    53    23    64 1   
    54    23    65 1   
    55    23    87 1   
    56    24    26 1   
    57    24    66 1   
    58    25    27 1   
    59    25    67 1   
    60    26    27 1   
    61    26    30 1   
    62    26    69 1   
    63    27    33 1   
    64    27    70 1   
    65    28    72 1   
    66    28    73 1   
    67    28    74 1   
    68    28    88 1   
    69    29    75 1   
    70    29    76 1   
    71    29    77 1   
    72    29    88 1   
    73    30    78 1   
    74    30    79 1   
    75    30    88 1   
    76    31    33 1   
    77    31    80 1   
    78    31    81 1   
    79    31    89 1   
    80    32    33 1   
    81    32    82 1   
    82    32    83 1   
    83    32    84 1   
    84    33    85 1   
    85    54    87 1   
    86    55    87 1   
    87    68    89 1   
    88    71    88 1   
@<TRIPOS>SUBSTRUCTURE
     1 OV2         1 TEMP              0 ****  ****    0 ROOT
