@<TRIPOS>MOLECULE
OV3
   37    37     1     0     0
SMALL
No Charge or Current Charge


@<TRIPOS>ATOM
      1 C1           8.2090    -9.8990   -22.6930 c6         1 OV3      -0.079400
      2 C7           8.1670    -8.5320   -21.9650 c6         1 OV3       0.198300
      3 C5           7.9610    -8.6870   -20.4320 c6         1 OV3      -0.245700
      4 C6           7.9290    -7.3040   -19.7720 c          1 OV3       0.722000
      5 O6A          6.8930    -6.9390   -19.2400 o          1 OV3      -0.716000
      6 O6B          8.9260    -6.6040   -19.8870 o          1 OV3      -0.716000
      7 C4           9.0190    -9.6560   -19.8120 c6         1 OV3       0.170300
      8 O4           8.8030    -9.9330   -18.4080 os         1 OV3      -0.457000
      9 C3           8.9980   -11.0260   -20.5580 c6         1 OV3       0.110300
     10 O3           9.9370   -11.9550   -19.9720 oh         1 OV3      -0.747000
     11 C2           9.2740   -10.8360   -22.0750 c6         1 OV3       0.181300
     12 O2           9.2580   -12.1150   -22.7210 oh         1 OV3      -0.676000
     13 O8           9.3720    -7.8080   -22.2120 oh         1 OV3      -0.736000
     14 C8           9.1230    -8.9200   -17.4350 c3         1 OV3       0.149600
     15 C9           9.3350    -9.6120   -16.0680 c3         1 OV3       0.094000
     16 N10         10.6350   -10.2960   -15.9480 ns         1 OV3      -0.484900
     17 C11         10.9510   -11.5270   -16.5010 c          1 OV3       0.556100
     18 C12         12.4090   -12.0060   -16.2490 c3         1 OV3       0.200000
     19 O13         10.1330   -12.1810   -17.1390 o          1 OV3      -0.518100
     20 F1          12.6530   -13.2160   -16.8090 f          1 OV3      -0.111667
     21 F2          13.3090   -11.1360   -16.7670 f          1 OV3      -0.111667
     22 F3          12.6700   -12.1180   -14.9250 f          1 OV3      -0.111667
     23 H1           8.4150    -9.7470   -23.7610 hc         1 OV3       0.044700
     24 H13          7.2190   -10.3720   -22.6330 hc         1 OV3       0.044700
     25 H9           7.3170    -7.9590   -22.3660 h1         1 OV3       0.027700
     26 H5           6.9720    -9.1370   -20.2700 hc         1 OV3       0.058700
     27 H4          10.0230    -9.2200   -19.9270 h1         1 OV3       0.062700
     28 H3           7.9820   -11.4360   -20.4530 h1         1 OV3       0.047700
     29 HO3          9.8230   -11.8650   -18.9880 ho         1 OV3       0.500000
     30 H2          10.2660   -10.3730   -22.1940 h1         1 OV3       0.052700
     31 HO2          9.6340   -12.7200   -22.0410 ho         1 OV3       0.444000
     32 H11          9.4360    -7.1850   -21.4350 ho         1 OV3       0.513000
     33 H8          10.0330    -8.3700   -17.7090 h1         1 OV3       0.037200
     34 H81          8.2980    -8.2050   -17.3390 h1         1 OV3       0.037200
     35 H91          9.2780    -8.8500   -15.2800 h1         1 OV3       0.068200
     36 H92          8.5240   -10.3310   -15.8900 h1         1 OV3       0.068200
     37 HN10        11.3750    -9.8300   -15.4330 hn         1 OV3       0.321500
@<TRIPOS>BOND
     1     1     2 1   
     2     1    11 1   
     3     1    23 1   
     4     1    24 1   
     5     2     3 1   
     6     2    13 1   
     7     2    25 1   
     8     3     4 1   
     9     3     7 1   
    10     3    26 1   
    11     4     5 1   
    12     4     6 1   
    13     7     8 1   
    14     7     9 1   
    15     7    27 1   
    16     8    14 1   
    17     9    10 1   
    18     9    11 1   
    19     9    28 1   
    20    10    29 1   
    21    11    12 1   
    22    11    30 1   
    23    12    31 1   
    24    13    32 1   
    25    14    15 1   
    26    14    33 1   
    27    14    34 1   
    28    15    16 1   
    29    15    35 1   
    30    15    36 1   
    31    16    17 1   
    32    16    37 1   
    33    17    18 1   
    34    17    19 2   
    35    18    20 1   
    36    18    21 1   
    37    18    22 1   
@<TRIPOS>SUBSTRUCTURE
     1 OV3         1 TEMP              0 ****  ****    0 ROOT
