@<TRIPOS>MOLECULE
OV3
   37    37     1     0     0
SMALL
abcg2


@<TRIPOS>ATOM
      1 C1           8.1420   -10.2290   -22.4350 c6         1 OV3      -0.079400
      2 C7           7.5670    -8.9850   -21.7730 c6         1 OV3       0.198300
      3 C5           7.6790    -9.0820   -20.2400 c6         1 OV3      -0.245700
      4 C6           7.1260    -7.8130   -19.5630 c          1 OV3       0.722000
      5 O6A          6.2870    -7.9290   -18.6630 o          1 OV3      -0.716000
      6 O6B          7.5910    -6.7250   -20.0070 o          1 OV3      -0.716000
      7 C4           9.1370    -9.3160   -19.8460 c6         1 OV3       0.170300
      8 O4           9.2390    -9.4610   -18.4400 os         1 OV3      -0.457000
      9 C3           9.6810   -10.5810   -20.5030 c6         1 OV3       0.110300
     10 O3          11.0400   -10.7950   -20.1810 oh         1 OV3      -0.747000
     11 C2           9.5800   -10.4880   -22.0200 c6         1 OV3       0.181300
     12 O2          10.0110   -11.6820   -22.6370 oh         1 OV3      -0.676000
     13 O8           8.2320    -7.8450   -22.2640 oh         1 OV3      -0.736000
     14 C8          10.1090    -8.5690   -17.7960 c3         1 OV3       0.149600
     15 C9          10.3170    -9.0410   -16.3710 c3         1 OV3       0.094000
     16 N10         10.9450   -10.3460   -16.3130 ns         1 OV3      -0.484900
     17 C11         10.2670   -11.4750   -16.1280 c          1 OV3       0.556100
     18 C12         11.1080   -12.7630   -16.1250 c3         1 OV3       0.200000
     19 O13          9.0750   -11.5910   -15.9310 o          1 OV3      -0.518100
     20 F1          10.6300   -13.6190   -17.0280 f          1 OV3      -0.111667
     21 F2          12.4010   -12.5680   -16.3950 f          1 OV3      -0.111667
     22 F3          11.0290   -13.3450   -14.9290 f          1 OV3      -0.111667
     23 H1           8.0780   -10.1330   -23.5220 hc         1 OV3       0.044700
     24 H13          7.5250   -11.0900   -22.1560 hc         1 OV3       0.044700
     25 H9           6.4940    -8.9410   -22.0240 h1         1 OV3       0.027700
     26 H5           7.0920    -9.9480   -19.9170 hc         1 OV3       0.058700
     27 H4           9.7430    -8.4640   -20.1790 h1         1 OV3       0.062700
     28 H3           9.0680   -11.4340   -20.1710 h1         1 OV3       0.047700
     29 HO3         11.0930   -11.1130   -19.2760 ho         1 OV3       0.500000
     30 H2          10.2030    -9.6430   -22.3490 h1         1 OV3       0.052700
     31 HO2         10.9080   -11.8580   -22.3360 ho         1 OV3       0.444000
     32 H11          8.1150    -7.1800   -21.5430 ho         1 OV3       0.513000
     33 H8          11.0790    -8.5140   -18.3060 h1         1 OV3       0.037200
     34 H81          9.7010    -7.5500   -17.7700 h1         1 OV3       0.037200
     35 H91         10.9580    -8.3290   -15.8510 h1         1 OV3       0.068200
     36 H92          9.3700    -9.0800   -15.8340 h1         1 OV3       0.068200
     37 HN10        11.9380   -10.3810   -16.4860 hn         1 OV3       0.321500
@<TRIPOS>BOND
     1     1     2 1   
     2     1    11 1   
     3     1    23 1   
     4     1    24 1   
     5     2     3 1   
     6     2    13 1   
     7     2    25 1   
     8     3     4 1   
     9     3     7 1   
    10     3    26 1   
    11     4     5 1   
    12     4     6 1   
    13     7     8 1   
    14     7     9 1   
    15     7    27 1   
    16     8    14 1   
    17     9    10 1   
    18     9    11 1   
    19     9    28 1   
    20    10    29 1   
    21    11    12 1   
    22    11    30 1   
    23    12    31 1   
    24    13    32 1   
    25    14    15 1   
    26    14    33 1   
    27    14    34 1   
    28    15    16 1   
    29    15    35 1   
    30    15    36 1   
    31    16    17 1   
    32    16    37 1   
    33    17    18 1   
    34    17    19 2   
    35    18    20 1   
    36    18    21 1   
    37    18    22 1   
@<TRIPOS>SUBSTRUCTURE
     1 OV3         1 TEMP              0 ****  ****    0 ROOT
