@<TRIPOS>MOLECULE
OV4
   52    55     1     0     0
SMALL
No Charge or Current Charge


@<TRIPOS>ATOM
      1 N1           9.3640     0.5780    22.7650 n          1 OV4      -0.232400
      2 N3           7.4490    -0.1090    18.3360 nc         1 OV4      -0.155400
      3 C4           8.5080    -0.8220    24.6070 ca         1 OV4      -0.060500
      4 C5           9.3470    -0.6730    23.4860 ca         1 OV4      -0.136000
      5 C6           9.9500    -1.8230    22.9390 ca         1 OV4      -0.060500
      6 C7           9.8090    -3.0710    23.5680 ca         1 OV4      -0.187500
      7 C8           9.7340     1.7990    23.5240 c3         1 OV4       0.151300
      8 C10         12.0780     1.2790    24.3590 ca         1 OV4      -0.093000
      9 C13         13.1840     3.2950    22.7440 ca         1 OV4      -0.115500
     10 C15          9.0820     0.7120    21.3770 c          1 OV4       0.587100
     11 C17          5.4950     0.7100    18.8890 ca         1 OV4       0.015400
     12 C20          4.2560     1.2730    21.3260 ca         1 OV4      -0.078000
     13 C21          5.5620     0.7380    21.3140 ca         1 OV4      -0.110000
     14 C22          6.1370     0.4740    20.0620 ca         1 OV4      -0.058200
     15 O            9.3200     1.7580    20.7780 o          1 OV4      -0.581100
     16 C16          8.4000    -0.4630    20.6540 c3         1 OV4       0.010600
     17 N2           7.3560    -0.0300    19.7170 na         1 OV4       0.067600
     18 C19          3.5770     1.5240    20.1080 ca         1 OV4      -0.140000
     19 C18          4.1970     1.2410    18.8700 ca         1 OV4      -0.028000
     20 N4           6.3060     0.3500    17.8210 nd         1 OV4      -0.218400
     21 C3           8.3670    -2.0730    25.2320 ca         1 OV4      -0.187500
     22 C2           9.0240    -3.2120    24.7270 ca         1 OV4       0.342000
     23 N            8.8800    -4.4750    25.3580 nh         1 OV4      -0.824400
     24 C1           9.9410    -5.5070    25.2720 c3         1 OV4       0.211600
     25 C            7.6660    -4.8200    26.1350 c3         1 OV4       0.211600
     26 C9          11.2360     2.0560    23.5380 ca         1 OV4      -0.112300
     27 C14         11.7970     3.0640    22.7290 ca         1 OV4      -0.093000
     28 C12         14.0180     2.5180    23.5660 ca         1 OV4      -0.105000
     29 C11         13.4650     1.5100    24.3730 ca         1 OV4      -0.115500
     30 H2          10.5600    -1.7490    22.0410 ha         1 OV4       0.121000
     31 H3          10.3030    -3.9350    23.1330 ha         1 OV4       0.118000
     32 H4           9.2090     2.6680    23.1080 h1         1 OV4       0.069200
     33 H5           9.3910     1.7030    24.5610 h1         1 OV4       0.069200
     34 H6          11.6570     0.4950    24.9840 ha         1 OV4       0.118500
     35 H7          13.6120     4.0740    22.1170 ha         1 OV4       0.113500
     36 H8           3.7700     1.4940    22.2740 ha         1 OV4       0.114000
     37 H9           6.0950     0.5400    22.2410 ha         1 OV4       0.122000
     38 H10          7.9310    -1.1210    21.3920 h1         1 OV4       0.091700
     39 H11          9.1690    -1.0300    20.1190 h1         1 OV4       0.091700
     40 H12          2.5710     1.9370    20.1260 ha         1 OV4       0.117000
     41 H13          3.6850     1.4290    17.9290 ha         1 OV4       0.133000
     42 H14          7.7380    -2.1490    26.1130 ha         1 OV4       0.118000
     43 H15          9.8930    -6.1900    26.1320 h1         1 OV4       0.039033
     44 H16          9.8310    -6.0980    24.3530 h1         1 OV4       0.039033
     45 H17         10.9360    -5.0410    25.2760 h1         1 OV4       0.039033
     46 H18          7.5240    -5.9090    26.1770 h1         1 OV4       0.039033
     47 H19          7.7440    -4.4400    27.1620 h1         1 OV4       0.039033
     48 H20          6.7710    -4.3890    25.6650 h1         1 OV4       0.039033
     49 H21         11.1600     3.6680    22.0870 ha         1 OV4       0.118500
     50 H22         15.0910     2.6960    23.5760 ha         1 OV4       0.112000
     51 H23         14.1090     0.9070    25.0080 ha         1 OV4       0.113500
     52 H1           7.9560     0.0280    25.0010 ha         1 OV4       0.121000
@<TRIPOS>BOND
     1     1     4 1   
     2     1     7 1   
     3     1    10 1   
     4     2    17 1   
     5     2    20 2   
     6     3     4 ar  
     7     3    21 ar  
     8     3    52 1   
     9     4     5 ar  
    10     5     6 ar  
    11     5    30 1   
    12     6    22 ar  
    13     6    31 1   
    14     7    26 1   
    15     7    32 1   
    16     7    33 1   
    17     8    26 ar  
    18     8    29 ar  
    19     8    34 1   
    20     9    27 ar  
    21     9    28 ar  
    22     9    35 1   
    23    10    15 2   
    24    10    16 1   
    25    11    14 ar  
    26    11    19 ar  
    27    11    20 1   
    28    12    13 ar  
    29    12    18 ar  
    30    12    36 1   
    31    13    14 ar  
    32    13    37 1   
    33    14    17 1   
    34    16    17 1   
    35    16    38 1   
    36    16    39 1   
    37    18    19 ar  
    38    18    40 1   
    39    19    41 1   
    40    21    22 ar  
    41    21    42 1   
    42    22    23 1   
    43    23    24 1   
    44    23    25 1   
    45    24    43 1   
    46    24    44 1   
    47    24    45 1   
    48    25    46 1   
    49    25    47 1   
    50    25    48 1   
    51    26    27 ar  
    52    27    49 1   
    53    28    29 ar  
    54    28    50 1   
    55    29    51 1   
@<TRIPOS>SUBSTRUCTURE
     1 OV4         1 TEMP              0 ****  ****    0 ROOT
