@<TRIPOS>MOLECULE
OV4
   52    55     1     0     0
SMALL
abcg2


@<TRIPOS>ATOM
      1 N1           9.0340     0.7760    22.9960 n          1 OV4      -0.232400
      2 N3           7.4070     0.1020    18.7960 nc         1 OV4      -0.155400
      3 C4           8.3030    -0.9170    24.6080 ca         1 OV4      -0.060500
      4 C5           9.1360    -0.5370    23.5600 ca         1 OV4      -0.136000
      5 C6          10.1040    -1.4310    23.1150 ca         1 OV4      -0.060500
      6 C7          10.2240    -2.6900    23.6800 ca         1 OV4      -0.187500
      7 C8           9.7220     1.8630    23.7120 c3         1 OV4       0.151300
      8 C10         11.9210     1.2890    24.8040 ca         1 OV4      -0.093000
      9 C13         13.2930     1.7100    22.4260 ca         1 OV4      -0.115500
     10 C15          8.3910     1.0270    21.8350 c          1 OV4       0.587100
     11 C17          5.4300     0.9800    18.6750 ca         1 OV4       0.015400
     12 C20          3.5670     1.6250    20.6060 ca         1 OV4      -0.078000
     13 C21          4.7560     1.0680    21.0350 ca         1 OV4      -0.110000
     14 C22          5.6810     0.7490    20.0370 ca         1 OV4      -0.058200
     15 O            8.3250     2.1340    21.3090 o          1 OV4      -0.581100
     16 C16          7.7230    -0.1940    21.1840 c3         1 OV4       0.010600
     17 N2           6.9210     0.1900    20.0520 na         1 OV4       0.067600
     18 C19          3.2990     1.8600    19.2370 ca         1 OV4      -0.140000
     19 C18          4.2180     1.5450    18.2560 ca         1 OV4      -0.028000
     20 N4           6.5290     0.5620    17.9620 nd         1 OV4      -0.218400
     21 C3           8.4140    -2.1690    25.1880 ca         1 OV4      -0.187500
     22 C2           9.3710    -3.1030    24.7280 ca         1 OV4       0.342000
     23 N            9.4630    -4.3590    25.2740 nh         1 OV4      -0.824400
     24 C1          10.5830    -5.2150    24.9250 c3         1 OV4       0.211600
     25 C            8.7200    -4.6730    26.4830 c3         1 OV4       0.211600
     26 C9          11.2200     1.6970    23.6720 ca         1 OV4      -0.112300
     27 C14         11.9180     1.9050    22.4820 ca         1 OV4      -0.093000
     28 C12         13.9870     1.3020    23.5640 ca         1 OV4      -0.105000
     29 C11         13.2980     1.0940    24.7530 ca         1 OV4      -0.115500
     30 H2          10.7740    -1.1360    22.3180 ha         1 OV4       0.121000
     31 H3          10.9900    -3.3520    23.3060 ha         1 OV4       0.118000
     32 H4           9.4200     2.7960    23.2420 h1         1 OV4       0.069200
     33 H5           9.3710     1.8620    24.7450 h1         1 OV4       0.069200
     34 H6          11.3830     1.1170    25.7290 ha         1 OV4       0.118500
     35 H7          13.8240     1.8750    21.4970 ha         1 OV4       0.113500
     36 H8           2.8150     1.8930    21.3380 ha         1 OV4       0.114000
     37 H9           4.9600     0.8920    22.0820 ha         1 OV4       0.122000
     38 H10          7.0980    -0.7200    21.9040 h1         1 OV4       0.091700
     39 H11          8.4840    -0.8890    20.8350 h1         1 OV4       0.091700
     40 H12          2.3490     2.2980    18.9600 ha         1 OV4       0.117000
     41 H13          4.0170     1.7240    17.2080 ha         1 OV4       0.133000
     42 H14          7.7510    -2.4220    26.0010 ha         1 OV4       0.118000
     43 H15         10.4590    -6.1750    25.4180 h1         1 OV4       0.039033
     44 H16         10.6200    -5.3920    23.8480 h1         1 OV4       0.039033
     45 H17         11.5460    -4.7870    25.2320 h1         1 OV4       0.039033
     46 H18          8.8910    -5.7150    26.7390 h1         1 OV4       0.039033
     47 H19          9.0270    -4.0510    27.3330 h1         1 OV4       0.039033
     48 H20          7.6470    -4.5350    26.3320 h1         1 OV4       0.039033
     49 H21         11.3800     2.2160    21.5940 ha         1 OV4       0.118500
     50 H22         15.0580     1.1500    23.5210 ha         1 OV4       0.112000
     51 H23         13.8310     0.7750    25.6410 ha         1 OV4       0.113500
     52 H1           7.5570    -0.2220    24.9740 ha         1 OV4       0.121000
@<TRIPOS>BOND
     1     1     4 1   
     2     1     7 1   
     3     1    10 1   
     4     2    17 1   
     5     2    20 2   
     6     3     4 ar  
     7     3    21 ar  
     8     3    52 1   
     9     4     5 ar  
    10     5     6 ar  
    11     5    30 1   
    12     6    22 ar  
    13     6    31 1   
    14     7    26 1   
    15     7    32 1   
    16     7    33 1   
    17     8    26 ar  
    18     8    29 ar  
    19     8    34 1   
    20     9    27 ar  
    21     9    28 ar  
    22     9    35 1   
    23    10    15 2   
    24    10    16 1   
    25    11    14 ar  
    26    11    19 ar  
    27    11    20 1   
    28    12    13 ar  
    29    12    18 ar  
    30    12    36 1   
    31    13    14 ar  
    32    13    37 1   
    33    14    17 1   
    34    16    17 1   
    35    16    38 1   
    36    16    39 1   
    37    18    19 ar  
    38    18    40 1   
    39    19    41 1   
    40    21    22 ar  
    41    21    42 1   
    42    22    23 1   
    43    23    24 1   
    44    23    25 1   
    45    24    43 1   
    46    24    44 1   
    47    24    45 1   
    48    25    46 1   
    49    25    47 1   
    50    25    48 1   
    51    26    27 ar  
    52    27    49 1   
    53    28    29 ar  
    54    28    50 1   
    55    29    51 1   
@<TRIPOS>SUBSTRUCTURE
     1 OV4         1 TEMP              0 ****  ****    0 ROOT
