@<TRIPOS>MOLECULE
OV6
   72    74     1     0     0
SMALL
abcg2


@<TRIPOS>ATOM
      1 C4          -1.4160    31.0020    18.1550 c6         1 OV6       0.109300
      2 C5          -2.6010    31.6250    18.8890 c6         1 OV6       0.175300
      3 C6          -3.2100    30.7250    19.9400 c3         1 OV6       0.166600
      4 C8          -0.6300    35.7250    14.6730 c3         1 OV6      -0.178100
      5 N2          -0.3600    34.3210    16.6170 ns         1 OV6      -0.487900
      6 C3          -0.9090    31.9500    17.0790 c6         1 OV6       0.154300
      7 C1          -1.7830    33.8390    18.5880 c6         1 OV6       0.380300
      8 C2          -0.6660    33.3490    17.6570 c6         1 OV6       0.095700
      9 CAM         -2.1890    35.0670    21.5700 c3         1 OV6      -0.098400
     10 CAO          2.5450    28.1840    17.4260 c3         1 OV6       0.163600
     11 CAP         -1.6880    27.4100    17.3220 c6         1 OV6       0.158300
     12 CAQ         -0.7880    26.2090    17.5940 c6         1 OV6       0.187300
     13 CAR          0.6670    26.4740    17.1670 c6         1 OV6       0.113300
     14 CAS          1.1390    27.7850    17.8040 c6         1 OV6       0.152300
     15 CAU         -1.0540    28.6650    17.9130 c6         1 OV6       0.355300
     16 CAY         -0.7890    34.8680    22.1480 c3         1 OV6      -0.080100
     17 CBA         -1.6210    22.7420    16.7440 cc         1 OV6       0.195300
     18 CBB         -2.7820    22.1400    17.1750 cd         1 OV6      -0.179000
     19 NBC         -3.0750    21.2340    16.2220 na         1 OV6       0.113800
     20 NBD         -2.1540    21.2600    15.2460 nd         1 OV6      -0.205800
     21 NBE         -1.2740    22.1720    15.5590 nc         1 OV6      -0.340000
     22 O1          -1.2690    34.9220    19.2810 os         1 OV6      -0.455000
     23 O3           0.3180    31.5120    16.5020 oh         1 OV6      -0.734000
     24 O4          -1.8100    29.7670    17.5350 os         1 OV6      -0.453000
     25 O5          -2.1320    32.8160    19.5160 os         1 OV6      -0.482000
     26 O6          -2.2020    30.3090    20.8610 oh         1 OV6      -0.720000
     27 OAN         -2.9510    27.1640    17.9260 oh         1 OV6      -0.716000
     28 OAT          0.2590    28.8380    17.4030 os         1 OV6      -0.487000
     29 OAV          0.7210    26.5170    15.7450 oh         1 OV6      -0.687000
     30 OAX         -1.3580    25.0930    16.9360 os         1 OV6      -0.423000
     31 H4          -0.6270    30.8110    18.8840 h1         1 OV6       0.089700
     32 H5          -3.3930    31.8670    18.1670 h1         1 OV6       0.058700
     33 H62         -4.0030    31.2780    20.4530 h1         1 OV6       0.035700
     34 H61         -3.6560    29.8630    19.4390 h1         1 OV6       0.035700
     35 H83         -1.3720    35.9590    13.9130 hc         1 OV6       0.061367
     36 H81         -0.3560    36.6390    15.2050 hc         1 OV6       0.061367
     37 H82          0.2700    35.3330    14.1950 hc         1 OV6       0.061367
     38 H22          0.5570    34.7350    16.6350 hn         1 OV6       0.321500
     39 H31         -1.6750    32.0080    16.3010 h1         1 OV6       0.077700
     40 H1          -2.6840    34.1250    18.0300 h2         1 OV6       0.054700
     41 H21          0.2280    33.2800    18.2790 h1         1 OV6       0.081700
     42 H2          -2.7330    34.1230    21.5940 hc         1 OV6       0.045700
     43 HAM         -2.7510    35.7780    22.1850 hc         1 OV6       0.045700
     44 H64          3.2100    27.3320    17.6060 h1         1 OV6       0.036200
     45 HAO          2.5840    28.4400    16.3640 h1         1 OV6       0.036200
     46 HAP         -1.7930    27.5520    16.2420 h1         1 OV6       0.090700
     47 HAQ         -0.7810    26.0320    18.6780 h1         1 OV6       0.041700
     48 HAR          1.2970    25.6650    17.5470 h1         1 OV6       0.039700
     49 HAS          1.0910    27.6740    18.8950 h1         1 OV6       0.056700
     50 HAU         -1.0040    28.5840    19.0080 h2         1 OV6       0.046700
     51 H3          -0.8410    34.5420    23.1890 hc         1 OV6       0.034367
     52 H65         -0.2400    34.1120    21.5810 hc         1 OV6       0.034367
     53 HAY         -0.2110    35.7960    22.1150 hc         1 OV6       0.034367
     54 HBB         -3.3920    22.2780    18.0510 h4         1 OV6       0.167000
     55 HBF         -4.1090    19.7410    15.2440 h1         1 OV6       0.064367
     56 H67         -4.1470    19.6260    17.0210 h1         1 OV6       0.064367
     57 H68         -5.1300    20.8540    16.1870 h1         1 OV6       0.064367
     58 H32          0.4020    30.5530    16.6460 ho         1 OV6       0.538000
     59 H69         -2.6000    29.6890    21.4840 ho         1 OV6       0.502000
     60 HAN         -3.5280    27.9120    17.7250 ho         1 OV6       0.516000
     61 HAV          1.6110    26.2850    15.4570 ho         1 OV6       0.501000
     62 CAF         -2.1750    35.6190    20.1480 c3         1 OV6       0.169600
     63 C7          -1.2040    34.7090    15.6360 c          1 OV6       0.601100
     64 OAW          2.9190    29.3030    18.2320 oh         1 OV6      -0.714000
     65 CAZ         -0.8290    23.8340    17.3650 c3         1 OV6       0.146300
     66 CBF         -4.1910    20.3040    16.1700 c3         1 OV6       0.065900
     67 O7          -2.3530    34.2780    15.5310 o          1 OV6      -0.625100
     68 HAF         -1.8190    36.6510    20.1580 h1         1 OV6       0.043200
     69 H63         -3.1790    35.6040    19.7110 h1         1 OV6       0.043200
     70 H66         -0.8770    23.7700    18.4570 h1         1 OV6       0.036200
     71 HAZ          0.2160    23.7320    17.0580 h1         1 OV6       0.036200
     72 HAW          3.7790    29.6180    17.9280 ho         1 OV6       0.508000
@<TRIPOS>BOND
     1     1     2 1   
     2     1     6 1   
     3     1    24 1   
     4     1    31 1   
     5     2     3 1   
     6     2    25 1   
     7     2    32 1   
     8     3    26 1   
     9     3    33 1   
    10     3    34 1   
    11     4    35 1   
    12     4    36 1   
    13     4    37 1   
    14     4    63 1   
    15     5     8 1   
    16     5    38 1   
    17     5    63 1   
    18     6     8 1   
    19     6    23 1   
    20     6    39 1   
    21     7     8 1   
    22     7    22 1   
    23     7    25 1   
    24     7    40 1   
    25     8    41 1   
    26     9    16 1   
    27     9    42 1   
    28     9    43 1   
    29     9    62 1   
    30    10    14 1   
    31    10    44 1   
    32    10    45 1   
    33    10    64 1   
    34    11    12 1   
    35    11    15 1   
    36    11    27 1   
    37    11    46 1   
    38    12    13 1   
    39    12    30 1   
    40    12    47 1   
    41    13    14 1   
    42    13    29 1   
    43    13    48 1   
    44    14    28 1   
    45    14    49 1   
    46    15    24 1   
    47    15    28 1   
    48    15    50 1   
    49    16    51 1   
    50    16    52 1   
    51    16    53 1   
    52    17    18 2   
    53    17    21 1   
    54    17    65 1   
    55    18    19 1   
    56    18    54 1   
    57    19    20 1   
    58    19    66 1   
    59    20    21 2   
    60    22    62 1   
    61    23    58 1   
    62    26    59 1   
    63    27    60 1   
    64    29    61 1   
    65    30    65 1   
    66    55    66 1   
    67    56    66 1   
    68    57    66 1   
    69    62    68 1   
    70    62    69 1   
    71    63    67 2   
    72    64    72 1   
    73    65    70 1   
    74    65    71 1   
@<TRIPOS>SUBSTRUCTURE
     1 OV6         1 TEMP              0 ****  ****    0 ROOT
