@<TRIPOS>MOLECULE
OV6
   72    74     1     0     0
SMALL
No Charge or Current Charge


@<TRIPOS>ATOM
      1 C4          -1.3760    30.9360    18.3960 c6         1 OV6       0.109300
      2 C5          -2.4720    31.6190    19.2640 c6         1 OV6       0.175300
      3 C6          -2.8960    30.7440    20.4920 c3         1 OV6       0.166600
      4 C8          -0.0810    35.7930    14.9120 c3         1 OV6      -0.178100
      5 N2          -0.0490    34.2290    16.7880 ns         1 OV6      -0.487900
      6 C3          -0.9130    31.8960    17.2570 c6         1 OV6       0.154300
      7 C1          -1.6720    33.8480    18.7310 c6         1 OV6       0.380300
      8 C2          -0.5180    33.2880    17.8390 c6         1 OV6       0.095700
      9 CAM         -2.8750    35.4400    21.1950 c3         1 OV6      -0.098400
     10 CAO          2.5320    28.1860    16.6440 c3         1 OV6       0.163600
     11 CAP         -1.6620    27.2450    17.5030 c6         1 OV6       0.158300
     12 CAQ         -0.6640    26.0440    17.6100 c6         1 OV6       0.187300
     13 CAR          0.6700    26.3750    16.8590 c6         1 OV6       0.113300
     14 CAS          1.2210    27.7460    17.3730 c6         1 OV6       0.152300
     15 CAU         -0.9600    28.5520    17.9960 c6         1 OV6       0.355300
     16 CAY         -1.8190    35.2080    22.2980 c3         1 OV6      -0.080100
     17 CBA         -1.4230    22.4450    16.8140 cc         1 OV6       0.195300
     18 CBB         -2.7720    22.2860    16.8970 cd         1 OV6      -0.179000
     19 NBC         -2.9930    21.0860    16.2610 na         1 OV6       0.113800
     20 NBD         -1.8100    20.5530    15.8190 nd         1 OV6      -0.205800
     21 NBE         -0.8580    21.3850    16.1600 nc         1 OV6      -0.340000
     22 O1          -1.2660    35.0910    19.3450 os         1 OV6      -0.455000
     23 O3           0.1620    31.3210    16.4860 oh         1 OV6      -0.734000
     24 O4          -1.8480    29.6760    17.8490 os         1 OV6      -0.453000
     25 O5          -1.9810    32.8890    19.7600 os         1 OV6      -0.482000
     26 O6          -1.8260    30.4930    21.4290 oh         1 OV6      -0.720000
     27 OAN         -2.9020    26.9960    18.2180 oh         1 OV6      -0.716000
     28 OAT          0.2230    28.7890    17.2160 os         1 OV6      -0.487000
     29 OAV          0.4500    26.3720    15.4300 oh         1 OV6      -0.687000
     30 OAX         -1.2730    24.8310    17.0930 os         1 OV6      -0.423000
     31 H4          -0.5160    30.7440    19.0560 h1         1 OV6       0.089700
     32 H5          -3.3660    31.7990    18.6490 h1         1 OV6       0.058700
     33 H62         -3.7210    31.2630    20.9980 h1         1 OV6       0.035700
     34 H61         -3.2990    29.7930    20.1170 h1         1 OV6       0.035700
     35 H83         -0.7400    36.2810    14.1850 hc         1 OV6       0.061367
     36 H81          0.4820    36.5250    15.5030 hc         1 OV6       0.061367
     37 H82          0.7170    35.2260    14.4200 hc         1 OV6       0.061367
     38 H22          0.9440    34.4230    16.7380 hn         1 OV6       0.321500
     39 H31         -1.7820    32.0520    16.5980 h1         1 OV6       0.077700
     40 H1          -2.5650    34.0210    18.1130 h2         1 OV6       0.054700
     41 H21          0.3360    33.1250    18.5110 h1         1 OV6       0.081700
     42 H2          -3.4450    34.5200    21.0260 hc         1 OV6       0.045700
     43 HAM         -3.6010    36.1770    21.5620 hc         1 OV6       0.045700
     44 H64          3.2690    27.3780    16.7470 h1         1 OV6       0.036200
     45 HAO          2.3130    28.2930    15.5730 h1         1 OV6       0.036200
     46 HAP         -1.8810    27.3930    16.4350 h1         1 OV6       0.090700
     47 HAQ         -0.4370    25.8860    18.6740 h1         1 OV6       0.041700
     48 HAR          1.4100    25.6030    17.1160 h1         1 OV6       0.039700
     49 HAS          1.4600    27.6490    18.4420 h1         1 OV6       0.056700
     50 HAU         -0.6900    28.4400    19.0580 h2         1 OV6       0.046700
     51 H3          -2.3030    34.8880    23.2280 hc         1 OV6       0.034367
     52 H65         -1.1050    34.4310    22.0010 hc         1 OV6       0.034367
     53 HAY         -1.2630    36.1310    22.5010 hc         1 OV6       0.034367
     54 HBB         -3.5450    22.9040    17.3340 h4         1 OV6       0.167000
     55 HBF         -4.4460    20.2790    14.9690 h1         1 OV6       0.064367
     56 H67         -4.2560    19.4240    16.5300 h1         1 OV6       0.064367
     57 H68         -5.0900    21.0050    16.4720 h1         1 OV6       0.064367
     58 H32          0.1780    30.3480    16.7200 ho         1 OV6       0.538000
     59 H69         -2.2330    30.0850    22.2280 ho         1 OV6       0.502000
     60 HAN         -3.4270    27.8280    18.1460 ho         1 OV6       0.516000
     61 HAV         -0.1500    25.6120    15.2460 ho         1 OV6       0.501000
     62 CAF         -2.2940    35.9660    19.8590 c3         1 OV6       0.169600
     63 C7          -0.8350    34.8680    15.8580 c          1 OV6       0.601100
     64 OAW          3.0750    29.4170    17.1610 oh         1 OV6      -0.714000
     65 CAZ         -0.5870    23.5860    17.3450 c3         1 OV6       0.146300
     66 CBF         -4.2760    20.4070    16.0450 c3         1 OV6       0.065900
     67 O7          -2.0440    34.7040    15.7900 o          1 OV6      -0.625100
     68 HAF         -1.8680    36.9620    20.0400 h1         1 OV6       0.043200
     69 H63         -3.1040    36.0870    19.1270 h1         1 OV6       0.043200
     70 H66         -0.4350    23.4410    18.4230 h1         1 OV6       0.036200
     71 HAZ          0.3960    23.5720    16.8570 h1         1 OV6       0.036200
     72 HAW          3.8250    29.6700    16.5740 ho         1 OV6       0.508000
@<TRIPOS>BOND
     1     1     2 1   
     2     1     6 1   
     3     1    24 1   
     4     1    31 1   
     5     2     3 1   
     6     2    25 1   
     7     2    32 1   
     8     3    26 1   
     9     3    33 1   
    10     3    34 1   
    11     4    35 1   
    12     4    36 1   
    13     4    37 1   
    14     4    63 1   
    15     5     8 1   
    16     5    38 1   
    17     5    63 1   
    18     6     8 1   
    19     6    23 1   
    20     6    39 1   
    21     7     8 1   
    22     7    22 1   
    23     7    25 1   
    24     7    40 1   
    25     8    41 1   
    26     9    16 1   
    27     9    42 1   
    28     9    43 1   
    29     9    62 1   
    30    10    14 1   
    31    10    44 1   
    32    10    45 1   
    33    10    64 1   
    34    11    12 1   
    35    11    15 1   
    36    11    27 1   
    37    11    46 1   
    38    12    13 1   
    39    12    30 1   
    40    12    47 1   
    41    13    14 1   
    42    13    29 1   
    43    13    48 1   
    44    14    28 1   
    45    14    49 1   
    46    15    24 1   
    47    15    28 1   
    48    15    50 1   
    49    16    51 1   
    50    16    52 1   
    51    16    53 1   
    52    17    18 2   
    53    17    21 1   
    54    17    65 1   
    55    18    19 1   
    56    18    54 1   
    57    19    20 1   
    58    19    66 1   
    59    20    21 2   
    60    22    62 1   
    61    23    58 1   
    62    26    59 1   
    63    27    60 1   
    64    29    61 1   
    65    30    65 1   
    66    55    66 1   
    67    56    66 1   
    68    57    66 1   
    69    62    68 1   
    70    62    69 1   
    71    63    67 2   
    72    64    72 1   
    73    65    70 1   
    74    65    71 1   
@<TRIPOS>SUBSTRUCTURE
     1 OV6         1 TEMP              0 ****  ****    0 ROOT
