@<TRIPOS>MOLECULE
OV7
   15    14     1     0     0
SMALL
No Charge or Current Charge


@<TRIPOS>ATOM
      1 N            1.2850     1.9220     0.1610 n8         1 OV7      -0.877800
      2 CA           1.3210     0.4660    -0.2130 c3         1 OV7       0.080600
      3 CB1          2.6790    -0.3350     0.0670 c          1 OV7       0.915600
      4 SB2         -0.1150    -0.2860     0.6920 ss         1 OV7      -0.273200
      5 OG1          3.3040    -0.1160     1.1030 o          1 OV7      -0.843300
      6 OG2          3.0900    -1.1140    -0.7890 o          1 OV7      -0.843300
      7 CG3         -1.5500     0.5110    -0.1930 c3         1 OV7      -0.127300
      8 CD          -2.9310     0.0060     0.2890 c          1 OV7       0.938600
      9 OE1         -3.4940     0.6050     1.1990 o          1 OV7      -0.854300
     10 OE2         -3.4290    -0.9650    -0.2710 o          1 OV7      -0.854300
     11 H1           1.4920     1.9970     1.1610 hn         1 OV7       0.317800
     12 H2           2.0650     2.4030    -0.2950 hn         1 OV7       0.317800
     13 H4           1.1060     0.3790    -1.2850 h2         1 OV7       0.041700
     14 H6          -1.5070     1.5970    -0.0440 h1         1 OV7       0.030700
     15 H7          -1.4600     0.3090    -1.2670 h1         1 OV7       0.030700
@<TRIPOS>BOND
     1     1     2 1   
     2     1    11 1   
     3     1    12 1   
     4     2     3 1   
     5     2     4 1   
     6     2    13 1   
     7     3     5 1   
     8     3     6 1   
     9     4     7 1   
    10     7     8 1   
    11     7    14 1   
    12     7    15 1   
    13     8     9 1   
    14     8    10 1   
@<TRIPOS>SUBSTRUCTURE
     1 OV7         1 TEMP              0 ****  ****    0 ROOT
