@<TRIPOS>MOLECULE
OV7
   15    14     1     0     0
SMALL
bcc


@<TRIPOS>ATOM
      1 N            1.2690     1.7780     0.4690 n8         1 OV7      -0.877800
      2 CA           1.2830     0.5290    -0.2680 c3         1 OV7       0.080600
      3 CB1          2.5760    -0.3180    -0.1150 c          1 OV7       0.915600
      4 SB2         -0.1310    -0.5170     0.1900 ss         1 OV7      -0.273200
      5 OG1          3.6220     0.3240     0.0910 o          1 OV7      -0.843300
      6 OG2          2.4620    -1.5510    -0.2430 o          1 OV7      -0.843300
      7 CG3         -1.4970     0.6240    -0.1300 c3         1 OV7      -0.127300
      8 CD          -2.8500    -0.0500     0.1550 c          1 OV7       0.938600
      9 OE1         -3.8570     0.6380    -0.1000 o          1 OV7      -0.854300
     10 OE2         -2.8270    -1.2060     0.6170 o          1 OV7      -0.854300
     11 H1           1.3800     1.5730     1.4560 hn         1 OV7       0.317800
     12 H2           2.1020     2.2950     0.2100 hn         1 OV7       0.317800
     13 H4           1.1840     0.7810    -1.3320 h2         1 OV7       0.041700
     14 H6          -1.3940     1.5180     0.4870 h1         1 OV7       0.030700
     15 H7          -1.4640     0.9620    -1.1700 h1         1 OV7       0.030700
@<TRIPOS>BOND
     1     1     2 1   
     2     1    11 1   
     3     1    12 1   
     4     2     3 1   
     5     2     4 1   
     6     2    13 1   
     7     3     5 1   
     8     3     6 1   
     9     4     7 1   
    10     7     8 1   
    11     7    14 1   
    12     7    15 1   
    13     8     9 1   
    14     8    10 1   
@<TRIPOS>SUBSTRUCTURE
     1 OV7         1 TEMP              0 ****  ****    0 ROOT
