@<TRIPOS>MOLECULE
OV8
   66    67     1     0     0
SMALL
No Charge or Current Charge


@<TRIPOS>ATOM
      1 C13         -6.7430    -2.9430   -23.4200 cc         1 OV8       0.185300
      2 N           -0.5430    -1.4920   -27.6630 n8         1 OV8      -1.045200
      3 CA          -2.0270    -1.1970   -27.6780 c3         1 OV8       0.114500
      4 C           -2.9980    -2.4010   -27.4030 c          1 OV8       0.584100
      5 O           -4.0890    -2.2380   -26.8790 o          1 OV8      -0.520100
      6 CB          -2.4330    -0.4960   -29.0060 c3         1 OV8      -0.070400
      7 CG          -1.7660     0.8810   -29.2920 c3         1 OV8      -0.051700
      8 CD1         -2.1070     1.9470   -28.2220 c3         1 OV8      -0.090100
      9 CD2         -2.1420     1.3880   -30.7030 c3         1 OV8      -0.090100
     10 C1          -7.2780    -4.6810   -30.2410 c6         1 OV8       0.163600
     11 C14         -6.5120    -3.1060   -24.7510 cd         1 OV8      -0.163000
     12 C15         -6.0500    -3.6390   -22.2630 c3         1 OV8       0.138500
     13 C2          -7.6080    -3.1680   -30.1060 c6         1 OV8      -0.121700
     14 C3          -6.2920    -2.3360   -29.9930 c6         1 OV8       0.138300
     15 C4          -5.2940    -2.6800   -31.1480 c6         1 OV8       0.124300
     16 C5          -5.1220    -4.2270   -31.3260 c6         1 OV8       0.177300
     17 C6          -4.1510    -4.9190   -30.3090 c3         1 OV8       0.175600
     18 C7          -8.6720    -2.9010   -28.9850 c3         1 OV8      -0.064400
     19 C8          -8.2730    -3.1810   -27.5100 c3         1 OV8      -0.099400
     20 C9          -7.6000    -1.9930   -26.7780 c3         1 OV8       0.074600
     21 N10         -7.4010    -2.2390   -25.3410 na         1 OV8       0.133800
     22 N11         -8.1380    -1.5850   -24.3850 nd         1 OV8      -0.217800
     23 N12         -7.7310    -2.0180   -23.2170 nc         1 OV8      -0.375000
     24 N16         -6.8290    -4.7720   -21.6960 n8         1 OV8      -0.999200
     25 N3S         -2.5340    -3.6300   -27.7600 ns         1 OV8      -0.630300
     26 O1S         -4.0890    -5.2200   -26.5210 o          1 OV8      -0.535000
     27 O2S         -2.5050    -6.0890   -28.3290 o          1 OV8      -0.535000
     28 O3          -6.5920    -0.9270   -30.0580 oh         1 OV8      -0.658000
     29 O4          -5.7910    -2.0660   -32.3510 oh         1 OV8      -0.716000
     30 O5          -6.4130    -4.9010   -31.3770 os         1 OV8      -0.431000
     31 O6          -4.4800    -4.6110   -28.9420 os         1 OV8      -0.575700
     32 S           -3.3900    -5.0500   -27.7960 s6         1 OV8       1.436500
     33 H2          -0.2780    -2.0770   -28.4640 hn         1 OV8       0.421000
     34 H4          -2.2340    -0.5030   -26.8510 h1         1 OV8       0.105700
     35 H5          -3.5220    -0.3560   -29.0090 hc         1 OV8       0.046700
     36 H6          -2.2150    -1.1790   -29.8380 hc         1 OV8       0.046700
     37 H7          -0.6780     0.7420   -29.2830 hc         1 OV8       0.055700
     38 H8          -1.7180     1.6600   -27.2380 hc         1 OV8       0.035367
     39 H9          -1.6580     2.9130   -28.4830 hc         1 OV8       0.035367
     40 H10         -3.1920     2.0850   -28.1390 hc         1 OV8       0.035367
     41 H11         -1.6310     2.3330   -30.9250 hc         1 OV8       0.035367
     42 H12         -1.8480     0.6600   -31.4690 hc         1 OV8       0.035367
     43 H13         -3.2230     1.5550   -30.7850 hc         1 OV8       0.035367
     44 H14         -8.2070    -5.2460   -30.4020 h1         1 OV8       0.056700
     45 H15         -6.8130    -5.0750   -29.3280 h1         1 OV8       0.056700
     46 H16         -5.8200    -3.7340   -25.2920 h4         1 OV8       0.179000
     47 H17         -5.0760    -4.0170   -22.6030 h1         1 OV8       0.041200
     48 H18         -5.8650    -2.9050   -21.4650 h1         1 OV8       0.041200
     49 H19         -8.1100    -2.8760   -31.0400 hc         1 OV8       0.063700
     50 H20         -5.8000    -2.5790   -29.0400 h1         1 OV8       0.103700
     51 H21         -4.3130    -2.2480   -30.8990 h1         1 OV8       0.040700
     52 H22         -4.6540    -4.3800   -32.3090 h1         1 OV8       0.092700
     53 H23         -4.1770    -6.0030   -30.4830 h1         1 OV8       0.060200
     54 H24         -3.1370    -4.5690   -30.5470 h1         1 OV8       0.060200
     55 H25         -9.0480    -1.8730   -29.0600 hc         1 OV8       0.046200
     56 H26         -9.5470    -3.5270   -29.2040 hc         1 OV8       0.046200
     57 H27         -9.1880    -3.4320   -26.9580 hc         1 OV8       0.059200
     58 H28         -7.6290    -4.0660   -27.4470 hc         1 OV8       0.059200
     59 H29         -6.6240    -1.7730   -27.2210 h1         1 OV8       0.075700
     60 H30         -8.2260    -1.0990   -26.8890 h1         1 OV8       0.075700
     61 H31         -6.3470    -5.1290   -20.8610 hn         1 OV8       0.392500
     62 H32         -7.7170    -4.4090   -21.3290 hn         1 OV8       0.392500
     63 H34         -1.6420    -3.7290   -28.2060 hn         1 OV8       0.340500
     64 H35         -7.2930    -0.7470   -29.3970 ho         1 OV8       0.441000
     65 H36         -6.2900    -1.2870   -31.9980 ho         1 OV8       0.510000
     66 H1          -0.3020    -2.0570   -26.8370 hn         1 OV8       0.421000
@<TRIPOS>BOND
     1     1    11 2   
     2     1    12 1   
     3     1    23 1   
     4     2     3 1   
     5     2    33 1   
     6     2    66 1   
     7     3     4 1   
     8     3     6 1   
     9     3    34 1   
    10     4     5 2   
    11     4    25 1   
    12     6     7 1   
    13     6    35 1   
    14     6    36 1   
    15     7     8 1   
    16     7     9 1   
    17     7    37 1   
    18     8    38 1   
    19     8    39 1   
    20     8    40 1   
    21     9    41 1   
    22     9    42 1   
    23     9    43 1   
    24    10    13 1   
    25    10    30 1   
    26    10    44 1   
    27    10    45 1   
    28    11    21 1   
    29    11    46 1   
    30    12    24 1   
    31    12    47 1   
    32    12    48 1   
    33    13    14 1   
    34    13    18 1   
    35    13    49 1   
    36    14    15 1   
    37    14    28 1   
    38    14    50 1   
    39    15    16 1   
    40    15    29 1   
    41    15    51 1   
    42    16    17 1   
    43    16    30 1   
    44    16    52 1   
    45    17    31 1   
    46    17    53 1   
    47    17    54 1   
    48    18    19 1   
    49    18    55 1   
    50    18    56 1   
    51    19    20 1   
    52    19    57 1   
    53    19    58 1   
    54    20    21 1   
    55    20    59 1   
    56    20    60 1   
    57    21    22 1   
    58    22    23 2   
    59    24    61 1   
    60    24    62 1   
    61    25    32 1   
    62    25    63 1   
    63    26    32 2   
    64    27    32 2   
    65    28    64 1   
    66    29    65 1   
    67    31    32 1   
@<TRIPOS>SUBSTRUCTURE
     1 OV8         1 TEMP              0 ****  ****    0 ROOT
