@<TRIPOS>MOLECULE
OV8
   66    67     1     0     0
SMALL
abcg2


@<TRIPOS>ATOM
      1 C13         -6.2090    -2.7460   -23.8270 cc         1 OV8       0.185300
      2 N           -0.8520    -1.4840   -27.3720 n8         1 OV8      -1.045200
      3 CA          -2.2390    -1.1180   -27.4890 c3         1 OV8       0.114500
      4 C           -3.2730    -2.2360   -27.3460 c          1 OV8       0.584100
      5 O           -4.4400    -2.0280   -27.1220 o          1 OV8      -0.520100
      6 CB          -2.5090    -0.4380   -28.8380 c3         1 OV8      -0.070400
      7 CG          -1.6170     0.7680   -29.1360 c3         1 OV8      -0.051700
      8 CD1         -1.7130     1.8350   -28.0510 c3         1 OV8      -0.090100
      9 CD2         -1.9930     1.3450   -30.4980 c3         1 OV8      -0.090100
     10 C1          -7.3350    -4.7740   -30.2820 c6         1 OV8       0.163600
     11 C14         -6.9010    -3.2540   -24.8990 cd         1 OV8      -0.163000
     12 C15         -5.5390    -3.4730   -22.7120 c3         1 OV8       0.138500
     13 C2          -7.7810    -3.3250   -30.0890 c6         1 OV8      -0.121700
     14 C3          -6.5750    -2.4130   -29.8980 c6         1 OV8       0.138300
     15 C4          -5.5110    -2.6610   -30.9720 c6         1 OV8       0.124300
     16 C5          -5.1820    -4.1460   -31.1330 c6         1 OV8       0.177300
     17 C6          -4.1730    -4.6970   -30.1390 c3         1 OV8       0.175600
     18 C7          -8.8000    -3.2510   -28.9420 c3         1 OV8      -0.064400
     19 C8          -8.2160    -3.4200   -27.5300 c3         1 OV8      -0.099400
     20 C9          -7.9880    -2.0740   -26.8580 c3         1 OV8       0.074600
     21 N10         -7.2530    -2.1720   -25.6080 na         1 OV8       0.133800
     22 N11         -6.8200    -1.0680   -25.0290 nd         1 OV8      -0.217800
     23 N12         -6.1930    -1.4050   -23.9510 nc         1 OV8      -0.375000
     24 N16         -6.2880    -4.6660   -22.3520 n8         1 OV8      -0.999200
     25 N3S         -2.7730    -3.5060   -27.5580 ns         1 OV8      -0.630300
     26 O1S         -4.5280    -4.9730   -26.4180 o          1 OV8      -0.535000
     27 O2S         -2.7590    -5.9440   -27.9070 o          1 OV8      -0.535000
     28 O3          -6.9330    -1.0440   -29.8740 oh         1 OV8      -0.658000
     29 O4          -5.9480    -2.2160   -32.2380 oh         1 OV8      -0.716000
     30 O5          -6.3370    -4.9340   -31.2720 os         1 OV8      -0.431000
     31 O6          -4.6810    -4.6350   -28.7880 os         1 OV8      -0.575700
     32 S           -3.6880    -4.8910   -27.5780 s6         1 OV8       1.436500
     33 H2          -0.4890    -1.9960   -28.1640 hn         1 OV8       0.421000
     34 H4          -2.4750    -0.4120   -26.6880 h1         1 OV8       0.105700
     35 H5          -3.5570    -0.1250   -28.8650 hc         1 OV8       0.046700
     36 H6          -2.3840    -1.1770   -29.6390 hc         1 OV8       0.046700
     37 H7          -0.5800     0.4240   -29.1840 hc         1 OV8       0.055700
     38 H8          -1.3310     1.4810   -27.0930 hc         1 OV8       0.035367
     39 H9          -1.1310     2.7160   -28.3260 hc         1 OV8       0.035367
     40 H10         -2.7470     2.1560   -27.9030 hc         1 OV8       0.035367
     41 H11         -1.3410     2.1770   -30.7680 hc         1 OV8       0.035367
     42 H12         -1.9150     0.5940   -31.2860 hc         1 OV8       0.035367
     43 H13         -3.0200     1.7170   -30.4940 hc         1 OV8       0.035367
     44 H14         -8.1890    -5.3610   -30.6260 h1         1 OV8       0.056700
     45 H15         -7.0210    -5.2090   -29.3280 h1         1 OV8       0.056700
     46 H16         -7.1400    -4.2610   -25.1870 h4         1 OV8       0.179000
     47 H17         -4.5440    -3.7910   -23.0390 h1         1 OV8       0.041200
     48 H18         -5.3760    -2.7690   -21.8850 h1         1 OV8       0.041200
     49 H19         -8.2920    -3.0210   -31.0110 hc         1 OV8       0.063700
     50 H20         -6.1190    -2.6110   -28.9280 h1         1 OV8       0.103700
     51 H21         -4.5900    -2.1340   -30.6790 h1         1 OV8       0.040700
     52 H22         -4.6470    -4.2420   -32.0850 h1         1 OV8       0.092700
     53 H23         -3.9500    -5.7350   -30.3840 h1         1 OV8       0.060200
     54 H24         -3.2530    -4.1110   -30.2230 h1         1 OV8       0.060200
     55 H25         -9.3510    -2.3080   -28.9990 hc         1 OV8       0.046200
     56 H26         -9.5480    -4.0270   -29.1150 hc         1 OV8       0.046200
     57 H27         -8.9020    -4.0120   -26.9210 hc         1 OV8       0.059200
     58 H28         -7.2800    -3.9860   -27.5630 hc         1 OV8       0.059200
     59 H29         -7.4280    -1.4020   -27.5060 h1         1 OV8       0.075700
     60 H30         -8.9510    -1.6030   -26.6540 h1         1 OV8       0.075700
     61 H31         -5.7620    -5.1980   -21.6710 hn         1 OV8       0.392500
     62 H32         -7.1490    -4.3980   -21.8920 hn         1 OV8       0.392500
     63 H34         -1.7780    -3.6320   -27.7010 hn         1 OV8       0.340500
     64 H35         -7.6230    -0.8860   -30.5270 ho         1 OV8       0.441000
     65 H36         -6.0750    -1.2630   -32.1950 ho         1 OV8       0.510000
     66 H1          -0.6280    -1.9670   -26.5140 hn         1 OV8       0.421000
@<TRIPOS>BOND
     1     1    11 2   
     2     1    12 1   
     3     1    23 1   
     4     2     3 1   
     5     2    33 1   
     6     2    66 1   
     7     3     4 1   
     8     3     6 1   
     9     3    34 1   
    10     4     5 2   
    11     4    25 1   
    12     6     7 1   
    13     6    35 1   
    14     6    36 1   
    15     7     8 1   
    16     7     9 1   
    17     7    37 1   
    18     8    38 1   
    19     8    39 1   
    20     8    40 1   
    21     9    41 1   
    22     9    42 1   
    23     9    43 1   
    24    10    13 1   
    25    10    30 1   
    26    10    44 1   
    27    10    45 1   
    28    11    21 1   
    29    11    46 1   
    30    12    24 1   
    31    12    47 1   
    32    12    48 1   
    33    13    14 1   
    34    13    18 1   
    35    13    49 1   
    36    14    15 1   
    37    14    28 1   
    38    14    50 1   
    39    15    16 1   
    40    15    29 1   
    41    15    51 1   
    42    16    17 1   
    43    16    30 1   
    44    16    52 1   
    45    17    31 1   
    46    17    53 1   
    47    17    54 1   
    48    18    19 1   
    49    18    55 1   
    50    18    56 1   
    51    19    20 1   
    52    19    57 1   
    53    19    58 1   
    54    20    21 1   
    55    20    59 1   
    56    20    60 1   
    57    21    22 1   
    58    22    23 2   
    59    24    61 1   
    60    24    62 1   
    61    25    32 1   
    62    25    63 1   
    63    26    32 2   
    64    27    32 2   
    65    28    64 1   
    66    29    65 1   
    67    31    32 1   
@<TRIPOS>SUBSTRUCTURE
     1 OV8         1 TEMP              0 ****  ****    0 ROOT
