@<TRIPOS>MOLECULE
OV9
   19    20     1     0     0
SMALL
abcg2


@<TRIPOS>ATOM
      1 CAL          9.1260   -19.6880    -8.9540 c          1 OV9       0.608500
      2 C4          11.1270   -24.9830    -8.4830 c          1 OV9       0.492500
      3 C7           9.6530   -21.1280    -8.7990 ca         1 OV9       0.035500
      4 C6          10.4410   -21.6980    -9.8220 ca         1 OV9       0.275900
      5 C2           9.9650   -24.9710    -6.3360 cc         1 OV9       0.714800
      6 OAM          8.4990   -19.2000    -7.9900 o          1 OV9      -0.688000
      7 N8           9.3570   -21.8090    -7.7040 nb         1 OV9      -0.088000
      8 C8A          9.8280   -23.0680    -7.5910 ca         1 OV9       0.292000
      9 N1           9.5060   -23.7490    -6.4570 nd         1 OV9      -0.751700
     10 N2           9.6930   -25.6920    -5.2410 nv         1 OV9      -1.081200
     11 N3          10.7410   -25.5770    -7.2940 ns         1 OV9      -0.463400
     12 C4A         10.6180   -23.6160    -8.6260 ca         1 OV9       0.128500
     13 N5          10.9180   -22.9260    -9.7320 nb         1 OV9      -0.610000
     14 H2          10.6670   -21.1230   -10.7080 h4         1 OV9       0.053100
     15 H3           9.1130   -25.2870    -4.5260 hn         1 OV9       0.501500
     16 H4          10.0120   -26.6400    -5.1300 hn         1 OV9       0.501500
     17 H5          11.0680   -26.5240    -7.1430 hn         1 OV9       0.305500
     18 OXT          9.3860   -19.1430   -10.0540 o          1 OV9      -0.688000
     19 O4          11.8210   -25.5850    -9.2880 o          1 OV9      -0.540000
@<TRIPOS>BOND
     1     1     3 1   
     2     1     6 1   
     3     1    18 1   
     4     2    11 1   
     5     2    12 1   
     6     2    19 2   
     7     3     4 ar  
     8     3     7 ar  
     9     4    13 ar  
    10     4    14 1   
    11     5     9 2   
    12     5    10 1   
    13     5    11 1   
    14     7     8 ar  
    15     8     9 1   
    16     8    12 ar  
    17    10    15 1   
    18    10    16 1   
    19    11    17 1   
    20    12    13 ar  
@<TRIPOS>SUBSTRUCTURE
     1 OV9         1 TEMP              0 ****  ****    0 ROOT
