@<TRIPOS>MOLECULE
OV9
   19    20     1     0     0
SMALL
No Charge or Current Charge


@<TRIPOS>ATOM
      1 CAL          9.1130   -19.6980    -8.9550 c          1 OV9       0.608500
      2 C4          11.1400   -25.0280    -8.4340 c          1 OV9       0.492500
      3 C7           9.6480   -21.1070    -8.8160 ca         1 OV9       0.035500
      4 C6          10.4040   -21.6830    -9.8540 ca         1 OV9       0.275900
      5 C2          10.0660   -24.9670    -6.3130 cc         1 OV9       0.714800
      6 OAM          8.4580   -19.2210    -8.0380 o          1 OV9      -0.688000
      7 N8           9.3850   -21.7990    -7.6790 nb         1 OV9      -0.088000
      8 C8A          9.8580   -23.0600    -7.5430 ca         1 OV9       0.292000
      9 N1           9.5690   -23.7620    -6.3460 nd         1 OV9      -0.751700
     10 N2           9.8170   -25.6580    -5.2230 nv         1 OV9      -1.081200
     11 N3          10.7950   -25.5920    -7.2520 ns         1 OV9      -0.463400
     12 C4A         10.6240   -23.6230    -8.6110 ca         1 OV9       0.128500
     13 N5          10.8980   -22.9400    -9.7640 nb         1 OV9      -0.610000
     14 H2          10.6240   -21.1410   -10.7730 h4         1 OV9       0.053100
     15 H3           9.1130   -25.2240    -4.6380 hn         1 OV9       0.501500
     16 H4           9.7260   -26.6610    -5.3280 hn         1 OV9       0.501500
     17 H5          11.1340   -26.5240    -7.0740 hn         1 OV9       0.305500
     18 OXT          9.3540   -19.0800    -9.9830 o          1 OV9      -0.688000
     19 O4          11.8140   -25.6390    -9.2540 o          1 OV9      -0.540000
@<TRIPOS>BOND
     1     1     3 1   
     2     1     6 1   
     3     1    18 1   
     4     2    11 1   
     5     2    12 1   
     6     2    19 2   
     7     3     4 ar  
     8     3     7 ar  
     9     4    13 ar  
    10     4    14 1   
    11     5     9 2   
    12     5    10 1   
    13     5    11 1   
    14     7     8 ar  
    15     8     9 1   
    16     8    12 ar  
    17    10    15 1   
    18    10    16 1   
    19    11    17 1   
    20    12    13 ar  
@<TRIPOS>SUBSTRUCTURE
     1 OV9         1 TEMP              0 ****  ****    0 ROOT
