@<TRIPOS>MOLECULE
OVA
   47    48     1     0     0
SMALL
bcc


@<TRIPOS>ATOM
      1 C5          -0.8790    -0.2700     3.8630 c6         1 OVA      -0.184400
      2 C4           0.4520    -0.6150     3.2550 c          1 OVA       0.536100
      3 C3           0.7590     0.1310     1.9650 c6         1 OVA       0.030100
      4 C2          -0.3660    -0.1690     0.9400 c6         1 OVA       0.209800
      5 C1          -1.7270     0.3300     1.5210 c6         1 OVA       0.132800
      6 C6          -2.0150    -0.3980     2.8440 c6         1 OVA      -0.111400
      7 O11         -1.5610     1.7080     1.7850 oh         1 OVA      -0.593800
      8 C11         -2.8890     0.1130     0.5560 c3         1 OVA      -0.122100
      9 C21         -0.0360     0.4720    -0.4230 cx         1 OVA       0.093800
     10 C22         -0.6100    -0.1440    -1.6280 cx         1 OVA       0.069100
     11 C23         -0.9220     0.6050    -2.9010 c3         1 OVA      -0.029200
     12 C24         -0.6880    -0.2650    -4.1020 c2         1 OVA      -0.179200
     13 C25          0.3900    -0.2690    -4.8890 c2         1 OVA      -0.093400
     14 C2A          0.3340     1.9370    -0.4390 c3         1 OVA      -0.068100
     15 O2A          0.7480    -0.3440    -1.2810 op         1 OVA      -0.344600
     16 C2B          0.4900    -1.2100    -6.0540 c3         1 OVA      -0.056900
     17 C2C          1.5770     0.6280    -4.7090 c3         1 OVA      -0.056900
     18 O31          1.9800    -0.2440     1.4150 os         1 OVA      -0.355600
     19 C31          3.0850     0.4510     1.9440 c3         1 OVA       0.118700
     20 O41          1.2210    -1.4130     3.7340 o          1 OVA      -0.489100
     21 O1          -0.4060    -1.5580     0.7200 oh         1 OVA      -0.569800
     22 H51         -1.0690    -0.9000     4.7310 hc         1 OVA       0.071700
     23 H52         -0.8250     0.7650     4.2150 hc         1 OVA       0.071700
     24 H3           0.7450     1.2030     2.2110 h1         1 OVA       0.071700
     25 H61         -2.2490    -1.4550     2.6760 hc         1 OVA       0.052200
     26 H62         -2.9300     0.0150     3.2760 hc         1 OVA       0.052200
     27 H12         -2.3880     2.0500     2.1420 ho         1 OVA       0.408000
     28 H111        -3.8260     0.3950     1.0410 hc         1 OVA       0.050033
     29 H112        -2.7840     0.7270    -0.3390 hc         1 OVA       0.050033
     30 H113        -2.9850    -0.9270     0.2470 hc         1 OVA       0.050033
     31 H22         -1.2310    -1.0280    -1.4970 h1         1 OVA       0.087700
     32 H231        -1.9790     0.8880    -2.8610 hc         1 OVA       0.049700
     33 H232        -0.3590     1.5350    -2.9660 hc         1 OVA       0.049700
     34 H24         -1.4780    -0.9790    -4.3210 ha         1 OVA       0.115000
     35 HA1          0.8490     2.1810    -1.3660 hc         1 OVA       0.047700
     36 HA2         -0.5460     2.5720    -0.3620 hc         1 OVA       0.047700
     37 HA3          1.0090     2.2060     0.3720 hc         1 OVA       0.047700
     38 HB1          1.3730    -1.8490    -5.9660 hc         1 OVA       0.039700
     39 HB2         -0.3860    -1.8520    -6.1410 hc         1 OVA       0.039700
     40 HB3          0.6000    -0.6600    -6.9930 hc         1 OVA       0.039700
     41 HC1          1.5060     1.2730    -3.8370 hc         1 OVA       0.039700
     42 HC2          2.4880     0.0330    -4.6040 hc         1 OVA       0.039700
     43 HC3          1.7210     1.2600    -5.5890 hc         1 OVA       0.039700
     44 H11          3.9760     0.0880     1.4340 h1         1 OVA       0.031367
     45 H12A         3.0050     1.5300     1.7690 h1         1 OVA       0.031367
     46 H13          3.2160     0.2900     3.0180 h1         1 OVA       0.031367
     47 HO1         -0.9440    -1.9960     1.3860 ho         1 OVA       0.406000
@<TRIPOS>BOND
     1     1     2 1   
     2     1     6 1   
     3     1    22 1   
     4     1    23 1   
     5     2     3 1   
     6     2    20 2   
     7     3     4 1   
     8     3    18 1   
     9     3    24 1   
    10     4     5 1   
    11     4     9 1   
    12     4    21 1   
    13     5     6 1   
    14     5     7 1   
    15     5     8 1   
    16     6    25 1   
    17     6    26 1   
    18     7    27 1   
    19     8    28 1   
    20     8    29 1   
    21     8    30 1   
    22     9    10 1   
    23     9    14 1   
    24     9    15 1   
    25    10    11 1   
    26    10    15 1   
    27    10    31 1   
    28    11    12 1   
    29    11    32 1   
    30    11    33 1   
    31    12    13 2   
    32    12    34 1   
    33    13    16 1   
    34    13    17 1   
    35    14    35 1   
    36    14    36 1   
    37    14    37 1   
    38    16    38 1   
    39    16    39 1   
    40    16    40 1   
    41    17    41 1   
    42    17    42 1   
    43    17    43 1   
    44    18    19 1   
    45    19    44 1   
    46    19    45 1   
    47    19    46 1   
    48    21    47 1   
@<TRIPOS>SUBSTRUCTURE
     1 OVA         1 TEMP              0 ****  ****    0 ROOT
