@<TRIPOS>MOLECULE
OVA
   47    48     1     0     0
SMALL
No Charge or Current Charge


@<TRIPOS>ATOM
      1 C5          -1.1140    -0.3790     3.8990 c6         1 OVA      -0.184400
      2 C4           0.3520    -0.5070     3.4630 c          1 OVA       0.536100
      3 C3           0.7480     0.1900     2.1260 c6         1 OVA       0.053300
      4 C2          -0.2860    -0.0940     0.9800 c6         1 OVA       0.233000
      5 C1          -1.7690     0.2360     1.4750 c6         1 OVA       0.156000
      6 C6          -2.1170    -0.6050     2.7410 c6         1 OVA      -0.111400
      7 O11         -1.8990     1.6190     1.8280 oh         1 OVA      -0.656000
      8 C11         -2.8460    -0.0360     0.3810 c3         1 OVA      -0.122100
      9 C21          0.1010     0.6820    -0.3470 cx         1 OVA       0.117000
     10 C22         -0.2880     0.0790    -1.6830 cx         1 OVA       0.092300
     11 C23         -0.5540     0.9300    -2.9250 c3         1 OVA      -0.029200
     12 C24         -0.7420     0.0590    -4.1560 c2         1 OVA      -0.229200
     13 C25          0.2110    -0.3900    -4.9950 c2         1 OVA      -0.093400
     14 C2A          0.2340     2.2110    -0.2640 c3         1 OVA      -0.068100
     15 O2A          1.0770     0.0310    -1.2040 op         1 OVA      -0.391000
     16 C2B         -0.1140    -1.2360    -6.2130 c3         1 OVA      -0.056900
     17 C2C          1.7030    -0.1310    -4.8550 c3         1 OVA      -0.056900
     18 O31          2.1130    -0.1140     1.7060 os         1 OVA      -0.402000
     19 C31          3.1800     0.5660     2.3920 c3         1 OVA       0.141900
     20 O41          1.1570    -1.1030     4.1720 o          1 OVA      -0.489100
     21 O1          -0.1790    -1.5030     0.6770 oh         1 OVA      -0.692000
     22 H51         -1.3130    -1.0250     4.7650 hc         1 OVA       0.071700
     23 H52         -1.2410     0.6630     4.2200 hc         1 OVA       0.071700
     24 H3           0.6910     1.2590     2.3660 h1         1 OVA       0.071700
     25 H61         -2.1360    -1.6730     2.4850 hc         1 OVA       0.052200
     26 H62         -3.1320    -0.3670     3.0900 hc         1 OVA       0.052200
     27 H12         -2.8300     1.7560     2.1080 ho         1 OVA       0.447000
     28 H111        -3.8600     0.1080     0.7730 hc         1 OVA       0.050033
     29 H112        -2.7390     0.6390    -0.4750 hc         1 OVA       0.050033
     30 H113        -2.7890    -1.0650     0.0070 hc         1 OVA       0.050033
     31 H22         -0.8190    -0.8730    -1.6830 h1         1 OVA       0.087700
     32 H231        -1.4560     1.5340    -2.7650 hc         1 OVA       0.049700
     33 H232         0.2590     1.6470    -3.0840 hc         1 OVA       0.049700
     34 H24         -1.7870    -0.1890    -4.3490 ha         1 OVA       0.165000
     35 HA1          0.9030     2.5960    -1.0420 hc         1 OVA       0.047700
     36 HA2         -0.7400     2.6950    -0.3980 hc         1 OVA       0.047700
     37 HA3          0.6440     2.5520     0.6910 hc         1 OVA       0.047700
     38 HB1          0.3790    -2.2140    -6.1570 hc         1 OVA       0.039700
     39 HB2         -1.1910    -1.4170    -6.3080 hc         1 OVA       0.039700
     40 HB3          0.2190    -0.7450    -7.1350 hc         1 OVA       0.039700
     41 HC1          1.9560     0.4340    -3.9520 hc         1 OVA       0.039700
     42 HC2          2.2600    -1.0740    -4.8060 hc         1 OVA       0.039700
     43 HC3          2.0850     0.4360    -5.7130 hc         1 OVA       0.039700
     44 H11          4.1500     0.2630     1.9790 h1         1 OVA       0.031367
     45 H12A         3.0850     1.6530     2.2740 h1         1 OVA       0.031367
     46 H13          3.1800     0.3330     3.4640 h1         1 OVA       0.031367
     47 HO1          0.6980    -1.5870     0.2360 ho         1 OVA       0.505000
@<TRIPOS>BOND
     1     1     2 1   
     2     1     6 1   
     3     1    22 1   
     4     1    23 1   
     5     2     3 1   
     6     2    20 2   
     7     3     4 1   
     8     3    18 1   
     9     3    24 1   
    10     4     5 1   
    11     4     9 1   
    12     4    21 1   
    13     5     6 1   
    14     5     7 1   
    15     5     8 1   
    16     6    25 1   
    17     6    26 1   
    18     7    27 1   
    19     8    28 1   
    20     8    29 1   
    21     8    30 1   
    22     9    10 1   
    23     9    14 1   
    24     9    15 1   
    25    10    11 1   
    26    10    15 1   
    27    10    31 1   
    28    11    12 1   
    29    11    32 1   
    30    11    33 1   
    31    12    13 2   
    32    12    34 1   
    33    13    16 1   
    34    13    17 1   
    35    14    35 1   
    36    14    36 1   
    37    14    37 1   
    38    16    38 1   
    39    16    39 1   
    40    16    40 1   
    41    17    41 1   
    42    17    42 1   
    43    17    43 1   
    44    18    19 1   
    45    19    44 1   
    46    19    45 1   
    47    19    46 1   
    48    21    47 1   
@<TRIPOS>SUBSTRUCTURE
     1 OVA         1 TEMP              0 ****  ****    0 ROOT
