@<TRIPOS>MOLECULE
OVB
   75    77     1     0     0
SMALL
No Charge or Current Charge


@<TRIPOS>ATOM
      1 C1          -5.7720    -5.0170   -28.3740 c6         1 OVB       0.160600
      2 C2          -6.5290    -3.6570   -28.4090 c6         1 OVB      -0.115700
      3 C3          -5.6070    -2.5380   -29.0090 c6         1 OVB       0.141300
      4 C4          -4.9260    -2.9860   -30.3460 c6         1 OVB       0.160300
      5 C6          -2.9120    -4.4840   -29.5060 c3         1 OVB       0.171600
      6 C7          -7.0800    -3.3500   -26.9740 c3         1 OVB      -0.074400
      7 C8          -8.1320    -2.2160   -26.8500 c3         1 OVB      -0.095400
      8 C9          -8.7530    -2.0840   -25.4380 c3         1 OVB       0.080600
      9 C14         -9.1680    -4.2770   -24.2040 cc         1 OVB      -0.196000
     10 C16         -9.3690    -6.8710   -22.6500 ca         1 OVB      -0.088500
     11 C17         -9.5190    -8.0800   -21.9490 ca         1 OVB      -0.101000
     12 C18        -10.7290    -8.7910   -21.9950 ca         1 OVB       0.090100
     13 C19        -11.7990    -8.2760   -22.7590 ca         1 OVB      -0.101000
     14 C20        -11.6490    -7.0660   -23.4600 ca         1 OVB      -0.088500
     15 O3          -6.3710    -1.3510   -29.2980 oh         1 OVB      -0.678000
     16 N            0.0490     0.3100   -29.2990 n8         1 OVB      -1.038200
     17 CA          -1.4190     0.2500   -28.9380 c3         1 OVB       0.112500
     18 O           -2.7990    -0.8220   -27.2250 o          1 OVB      -0.537100
     19 CB          -2.3020     0.2940   -30.2180 c3         1 OVB      -0.069400
     20 CG          -2.1670     1.5670   -31.1050 c3         1 OVB      -0.051700
     21 CD1         -2.5690     2.8630   -30.3610 c3         1 OVB      -0.089600
     22 CD2         -2.9820     1.4130   -32.4100 c3         1 OVB      -0.089600
     23 C13        -10.2770    -5.0770   -24.1540 cd         1 OVB       0.248500
     24 C15        -10.4330    -6.3480   -23.4150 ca         1 OVB      -0.088500
     25 C22        -11.9670   -10.8170   -21.2230 c3         1 OVB       0.514000
     26 C5          -4.2990    -4.4130   -30.2380 c6         1 OVB       0.174300
     27 F23        -13.0350   -10.1760   -20.6960 f          1 OVB      -0.110000
     28 F24        -11.7360   -11.8990   -20.4460 f          1 OVB      -0.110000
     29 F25        -12.3190   -11.2800   -22.4450 f          1 OVB      -0.110000
     30 N10         -9.5560    -3.2470   -25.0230 na         1 OVB       0.126800
     31 N11        -10.8410    -3.4000   -25.4500 nc         1 OVB      -0.196800
     32 N12        -11.2770    -4.5120   -24.9220 nd         1 OVB      -0.353000
     33 N3S         -1.1680    -2.0950   -28.1530 ns         1 OVB      -0.630300
     34 O1S         -1.7460    -3.3950   -26.0390 o          1 OVB      -0.535500
     35 O4          -5.9370    -2.9280   -31.3660 oh         1 OVB      -0.718000
     36 O5          -5.2530    -5.3580   -29.6770 os         1 OVB      -0.430000
     37 O6          -2.9440    -3.8300   -28.2240 os         1 OVB      -0.572700
     38 S           -1.5070    -3.5710   -27.4740 s6         1 OVB       1.439500
     39 H1          -6.4660    -5.8130   -28.0660 h1         1 OVB       0.055700
     40 H2          -4.9610    -4.9970   -27.6350 h1         1 OVB       0.055700
     41 H3          -7.4030    -3.7860   -29.0620 hc         1 OVB       0.082700
     42 H4          -4.8200    -2.3050   -28.2770 h1         1 OVB       0.065700
     43 H5          -4.1260    -2.2710   -30.5850 h1         1 OVB       0.037700
     44 H6          -2.6230    -5.5380   -29.4030 h1         1 OVB       0.058700
     45 H7          -2.1780    -4.0000   -30.1640 h1         1 OVB       0.058700
     46 H8          -7.5380    -4.2670   -26.5840 hc         1 OVB       0.044200
     47 H9          -6.2430    -3.1270   -26.2990 hc         1 OVB       0.044200
     48 H10         -7.6680    -1.2540   -27.0890 hc         1 OVB       0.066700
     49 H11         -8.9330    -2.3750   -27.5820 hc         1 OVB       0.066700
     50 H12         -7.9540    -1.9300   -24.7010 h1         1 OVB       0.069200
     51 H13         -9.3990    -1.1980   -25.4120 h1         1 OVB       0.069200
     52 H14         -8.1890    -4.3540   -23.7550 h4         1 OVB       0.169000
     53 H15         -8.4190    -6.3470   -22.5920 ha         1 OVB       0.129000
     54 H16         -8.6900    -8.4700   -21.3630 ha         1 OVB       0.135000
     55 H17        -12.7520    -8.7910   -22.8240 ha         1 OVB       0.135000
     56 H18        -12.4880    -6.6900   -24.0410 ha         1 OVB       0.129000
     57 H19         -6.2370    -0.7350   -28.5440 ho         1 OVB       0.455000
     58 H21          0.3040    -0.4620   -29.9260 hn         1 OVB       0.421500
     59 H23         -1.6450     1.1430   -28.3380 h1         1 OVB       0.098700
     60 H24         -3.3530     0.1950   -29.9190 hc         1 OVB       0.046700
     61 H25         -2.0760    -0.5910   -30.8250 hc         1 OVB       0.046700
     62 H26         -1.1140     1.6690   -31.3980 hc         1 OVB       0.057700
     63 H27         -1.9040     3.0570   -29.5120 hc         1 OVB       0.035700
     64 H28         -2.5040     3.7290   -31.0320 hc         1 OVB       0.035700
     65 H29         -3.5980     2.7970   -29.9870 hc         1 OVB       0.035700
     66 H30         -2.8460     2.2870   -33.0580 hc         1 OVB       0.035700
     67 H31         -2.6590     0.5260   -32.9680 hc         1 OVB       0.035700
     68 H32         -4.0520     1.3100   -32.1930 hc         1 OVB       0.035700
     69 H33         -4.0950    -4.7470   -31.2650 h1         1 OVB       0.094700
     70 H34         -0.4300    -2.1650   -28.8280 hn         1 OVB       0.342500
     71 H35         -6.5470    -2.2410   -30.9920 ho         1 OVB       0.527000
     72 O21        -10.7980    -9.9730   -21.2780 os         1 OVB      -0.403100
     73 C           -1.8800    -0.9410   -28.0210 c          1 OVB       0.584100
     74 O2S         -0.5130    -4.5270   -27.9720 o          1 OVB      -0.535500
     75 H20          0.6270     0.1610   -28.4600 hn         1 OVB       0.421500
@<TRIPOS>BOND
     1     1     2 1   
     2     1    36 1   
     3     1    39 1   
     4     1    40 1   
     5     2     3 1   
     6     2     6 1   
     7     2    41 1   
     8     3     4 1   
     9     3    15 1   
    10     3    42 1   
    11     4    26 1   
    12     4    35 1   
    13     4    43 1   
    14     5    26 1   
    15     5    37 1   
    16     5    44 1   
    17     5    45 1   
    18     6     7 1   
    19     6    46 1   
    20     6    47 1   
    21     7     8 1   
    22     7    48 1   
    23     7    49 1   
    24     8    30 1   
    25     8    50 1   
    26     8    51 1   
    27     9    23 2   
    28     9    30 1   
    29     9    52 1   
    30    10    11 ar  
    31    10    24 ar  
    32    10    53 1   
    33    11    12 ar  
    34    11    54 1   
    35    12    13 ar  
    36    12    72 1   
    37    13    14 ar  
    38    13    55 1   
    39    14    24 ar  
    40    14    56 1   
    41    15    57 1   
    42    16    17 1   
    43    16    58 1   
    44    16    75 1   
    45    17    19 1   
    46    17    59 1   
    47    17    73 1   
    48    18    73 2   
    49    19    20 1   
    50    19    60 1   
    51    19    61 1   
    52    20    21 1   
    53    20    22 1   
    54    20    62 1   
    55    21    63 1   
    56    21    64 1   
    57    21    65 1   
    58    22    66 1   
    59    22    67 1   
    60    22    68 1   
    61    23    24 1   
    62    23    32 1   
    63    25    27 1   
    64    25    28 1   
    65    25    29 1   
    66    25    72 1   
    67    26    36 1   
    68    26    69 1   
    69    30    31 1   
    70    31    32 2   
    71    33    38 1   
    72    33    70 1   
    73    33    73 1   
    74    34    38 2   
    75    35    71 1   
    76    37    38 1   
    77    38    74 2   
@<TRIPOS>SUBSTRUCTURE
     1 OVB         1 TEMP              0 ****  ****    0 ROOT
