@<TRIPOS>MOLECULE
OVB
   75    77     1     0     0
SMALL
abcg2


@<TRIPOS>ATOM
      1 C1          -6.4180    -4.6080   -28.6180 c6         1 OVB       0.160600
      2 C2          -7.1870    -3.2950   -28.5280 c6         1 OVB      -0.115700
      3 C3          -6.2030    -2.1420   -28.7140 c6         1 OVB       0.141300
      4 C4          -5.3820    -2.3200   -29.9950 c6         1 OVB       0.160300
      5 C6          -3.4440    -3.9090   -29.4400 c3         1 OVB       0.171600
      6 C7          -7.9410    -3.2370   -27.1940 c3         1 OVB      -0.074400
      7 C8          -9.2480    -2.4530   -27.2510 c3         1 OVB      -0.095400
      8 C9          -9.9890    -2.4080   -25.9230 c3         1 OVB       0.080600
      9 C14         -9.8110    -4.4770   -24.4990 cc         1 OVB      -0.196000
     10 C16         -9.3490    -6.9640   -22.7710 ca         1 OVB      -0.088500
     11 C17         -9.2070    -8.1020   -21.9940 ca         1 OVB      -0.101000
     12 C18        -10.1110    -9.1390   -22.1500 ca         1 OVB       0.090100
     13 C19        -11.1450    -9.0590   -23.0660 ca         1 OVB      -0.101000
     14 C20        -11.2770    -7.9150   -23.8360 ca         1 OVB      -0.088500
     15 O3          -6.8530    -0.8890   -28.8230 oh         1 OVB      -0.678000
     16 N            0.3250    -0.3400   -29.1270 n8         1 OVB      -1.038200
     17 CA          -1.0400     0.0420   -28.8910 c3         1 OVB       0.112500
     18 O           -2.9650    -0.5830   -27.5810 o          1 OVB      -0.537100
     19 CB          -1.7840     0.2550   -30.2160 c3         1 OVB      -0.069400
     20 CG          -1.1040     1.2310   -31.1770 c3         1 OVB      -0.051700
     21 CD1         -0.8700     2.5940   -30.5380 c3         1 OVB      -0.089600
     22 CD2         -1.9450     1.3620   -32.4440 c3         1 OVB      -0.089600
     23 C13        -10.5290    -5.6510   -24.5160 cd         1 OVB       0.248500
     24 C15        -10.3850    -6.8510   -23.6970 ca         1 OVB      -0.088500
     25 C22        -10.5490   -10.4040   -20.2330 c3         1 OVB       0.514000
     26 C5          -4.7860    -3.7250   -30.1280 c6         1 OVB       0.174300
     27 F23        -10.1430    -9.4740   -19.3670 f          1 OVB      -0.110000
     28 F24        -10.2670   -11.5940   -19.7280 f          1 OVB      -0.110000
     29 F25        -11.8750   -10.2890   -20.3260 f          1 OVB      -0.110000
     30 N10        -10.3760    -3.7300   -25.4570 na         1 OVB       0.126800
     31 N11        -11.3680    -4.3790   -26.0380 nc         1 OVB      -0.196800
     32 N12        -11.4710    -5.5320   -25.4790 nd         1 OVB      -0.353000
     33 N3S         -1.3970    -2.1820   -27.9210 ns         1 OVB      -0.630300
     34 O1S         -2.6510    -3.0540   -25.8750 o          1 OVB      -0.535500
     35 O4          -6.1860    -2.1190   -31.1350 oh         1 OVB      -0.718000
     36 O5          -5.7100    -4.7420   -29.8340 os         1 OVB      -0.430000
     37 O6          -3.5310    -3.5440   -28.0460 os         1 OVB      -0.572700
     38 S           -2.2060    -3.4320   -27.1860 s6         1 OVB       1.439500
     39 H1          -7.1180    -5.4450   -28.5860 h1         1 OVB       0.055700
     40 H2          -5.7540    -4.7150   -27.7500 h1         1 OVB       0.055700
     41 H3          -7.9150    -3.2750   -29.3480 hc         1 OVB       0.082700
     42 H4          -5.5130    -2.1340   -27.8640 h1         1 OVB       0.065700
     43 H5          -4.5550    -1.5920   -29.9760 h1         1 OVB       0.037700
     44 H6          -3.1220    -4.9480   -29.5260 h1         1 OVB       0.058700
     45 H7          -2.7080    -3.2760   -29.9420 h1         1 OVB       0.058700
     46 H8          -8.1630    -4.2630   -26.8820 hc         1 OVB       0.044200
     47 H9          -7.2920    -2.8240   -26.4140 hc         1 OVB       0.044200
     48 H10         -9.0700    -1.4190   -27.5490 hc         1 OVB       0.066700
     49 H11         -9.9020    -2.8830   -28.0140 hc         1 OVB       0.066700
     50 H12         -9.3720    -1.9630   -25.1430 h1         1 OVB       0.069200
     51 H13        -10.8940    -1.8090   -26.0060 h1         1 OVB       0.069200
     52 H14         -8.9840    -4.1250   -23.9060 h4         1 OVB       0.169000
     53 H15         -8.6330    -6.1620   -22.6460 ha         1 OVB       0.129000
     54 H16         -8.3890    -8.1830   -21.2920 ha         1 OVB       0.135000
     55 H17        -11.8350    -9.8820   -23.1950 ha         1 OVB       0.135000
     56 H18        -12.0840    -7.8530   -24.5530 ha         1 OVB       0.129000
     57 H19         -6.8880    -0.4750   -27.9570 ho         1 OVB       0.455000
     58 H21          0.4270    -1.1150   -29.7700 hn         1 OVB       0.421500
     59 H23         -1.0420     0.9840   -28.3330 h1         1 OVB       0.098700
     60 H24         -2.7950     0.6120   -29.9970 hc         1 OVB       0.046700
     61 H25         -1.9000    -0.7130   -30.7200 hc         1 OVB       0.046700
     62 H26         -0.1320     0.8140   -31.4550 hc         1 OVB       0.057700
     63 H27         -0.1840     2.5340   -29.6910 hc         1 OVB       0.035700
     64 H28         -0.4380     3.2910   -31.2580 hc         1 OVB       0.035700
     65 H29         -1.8080     3.0270   -30.1800 hc         1 OVB       0.035700
     66 H30         -1.4540     2.0040   -33.1770 hc         1 OVB       0.035700
     67 H31         -2.1160     0.3920   -32.9130 hc         1 OVB       0.035700
     68 H32         -2.9220     1.8000   -32.2220 hc         1 OVB       0.035700
     69 H33         -4.5350    -3.8620   -31.1860 h1         1 OVB       0.094700
     70 H34         -0.4890    -2.4080   -28.3110 hn         1 OVB       0.342500
     71 H35         -6.6470    -1.2800   -31.0260 ho         1 OVB       0.527000
     72 O21         -9.9370   -10.3100   -21.4190 os         1 OVB      -0.403100
     73 C           -1.9000    -0.9040   -28.0520 c          1 OVB       0.584100
     74 O2S         -1.3720    -4.5900   -27.3870 o          1 OVB      -0.535500
     75 H20          0.8470    -0.5260   -28.2830 hn         1 OVB       0.421500
@<TRIPOS>BOND
     1     1     2 1   
     2     1    36 1   
     3     1    39 1   
     4     1    40 1   
     5     2     3 1   
     6     2     6 1   
     7     2    41 1   
     8     3     4 1   
     9     3    15 1   
    10     3    42 1   
    11     4    26 1   
    12     4    35 1   
    13     4    43 1   
    14     5    26 1   
    15     5    37 1   
    16     5    44 1   
    17     5    45 1   
    18     6     7 1   
    19     6    46 1   
    20     6    47 1   
    21     7     8 1   
    22     7    48 1   
    23     7    49 1   
    24     8    30 1   
    25     8    50 1   
    26     8    51 1   
    27     9    23 2   
    28     9    30 1   
    29     9    52 1   
    30    10    11 ar  
    31    10    24 ar  
    32    10    53 1   
    33    11    12 ar  
    34    11    54 1   
    35    12    13 ar  
    36    12    72 1   
    37    13    14 ar  
    38    13    55 1   
    39    14    24 ar  
    40    14    56 1   
    41    15    57 1   
    42    16    17 1   
    43    16    58 1   
    44    16    75 1   
    45    17    19 1   
    46    17    59 1   
    47    17    73 1   
    48    18    73 2   
    49    19    20 1   
    50    19    60 1   
    51    19    61 1   
    52    20    21 1   
    53    20    22 1   
    54    20    62 1   
    55    21    63 1   
    56    21    64 1   
    57    21    65 1   
    58    22    66 1   
    59    22    67 1   
    60    22    68 1   
    61    23    24 1   
    62    23    32 1   
    63    25    27 1   
    64    25    28 1   
    65    25    29 1   
    66    25    72 1   
    67    26    36 1   
    68    26    69 1   
    69    30    31 1   
    70    31    32 2   
    71    33    38 1   
    72    33    70 1   
    73    33    73 1   
    74    34    38 2   
    75    35    71 1   
    76    37    38 1   
    77    38    74 2   
@<TRIPOS>SUBSTRUCTURE
     1 OVB         1 TEMP              0 ****  ****    0 ROOT
