@<TRIPOS>MOLECULE
OVD
   69    71     1     0     0
SMALL
No Charge or Current Charge


@<TRIPOS>ATOM
      1 C4          -2.0370    31.1260    17.4680 c6         1 OVD       0.109300
      2 C5          -3.4120    31.8110    17.7180 c6         1 OVD       0.179300
      3 C6          -4.3010    31.0170    18.7340 c3         1 OVD       0.168600
      4 C8           1.2760    36.1340    15.5370 c3         1 OVD      -0.174100
      5 N2          -0.2180    34.3400    16.2530 ns         1 OVD      -0.491900
      6 C3          -1.1530    32.0300    16.5520 c6         1 OVD       0.155300
      7 C1          -2.4800    34.0190    17.3510 c6         1 OVD       0.379300
      8 C2          -1.0330    33.4710    17.1390 c6         1 OVD       0.089700
      9 CAM         -3.4640    37.4060    18.6110 c3         1 OVD      -0.082400
     10 CAO          2.3030    28.4860    17.7560 c3         1 OVD       0.162600
     11 CAP         -1.8410    27.3710    16.8630 c6         1 OVD       0.156300
     12 CAQ         -0.9550    26.2380    17.4810 c6         1 OVD       0.186300
     13 CAR          0.5640    26.5900    17.3310 c6         1 OVD       0.113300
     14 CAS          0.8170    28.0230    17.9060 c6         1 OVD       0.153300
     15 CAU         -1.4410    28.7460    17.4890 c6         1 OVD       0.361300
     16 CAY         -4.7490    38.2440    18.7610 c3         1 OVD      -0.088100
     17 CBA         -1.2260    22.5550    16.7550 cc         1 OVD       0.195300
     18 CBB         -2.4850    22.3110    16.3000 cd         1 OVD      -0.177000
     19 NBC         -2.3860    21.0610    15.7230 na         1 OVD      -0.020200
     20 NBD         -1.1030    20.5850    15.8410 nd         1 OVD      -0.198800
     21 NBE         -0.4060    21.4970    16.4700 nc         1 OVD      -0.339000
     22 O1          -2.4590    35.3360    17.9250 os         1 OVD      -0.432000
     23 O3           0.1420    31.4480    16.3230 oh         1 OVD      -0.720000
     24 O4          -2.2070    29.8060    16.8860 os         1 OVD      -0.464000
     25 O5          -3.2040    33.1470    18.2400 os         1 OVD      -0.471000
     26 O6          -3.7330    30.9240    20.0580 oh         1 OVD      -0.715000
     27 O7           0.7280    35.6780    17.8410 o          1 OVD      -0.597100
     28 OAN         -3.2610    27.1040    17.0130 oh         1 OVD      -0.714000
     29 OAT         -0.0440    28.9950    17.2570 os         1 OVD      -0.488000
     30 OAV          0.9660    26.4740    15.9480 oh         1 OVD      -0.689000
     31 OAX         -1.2630    24.9600    16.8640 os         1 OVD      -0.424000
     32 H4          -1.5400    31.0310    18.4460 h1         1 OVD       0.092700
     33 H5          -3.9600    31.8850    16.7670 h1         1 OVD       0.044700
     34 H62         -5.2770    31.5190    18.7810 h1         1 OVD       0.034700
     35 H61         -4.4780    30.0130    18.3270 h1         1 OVD       0.034700
     36 H82          1.9080    36.9510    15.9020 hc         1 OVD       0.058367
     37 H81          1.8460    35.4210    14.9310 hc         1 OVD       0.058367
     38 H83          0.5220    36.4920    14.8270 hc         1 OVD       0.058367
     39 H22         -0.2330    34.1530    15.2580 hn         1 OVD       0.304500
     40 H31         -1.6730    32.1130    15.5860 h1         1 OVD       0.033700
     41 H1          -2.9960    34.0620    16.3800 h2         1 OVD       0.013700
     42 H21         -0.5470    33.4110    18.1230 h1         1 OVD       0.124700
     43 HAF         -4.1830    36.1080    17.0250 h1         1 OVD       0.028700
     44 H63         -4.4150    35.4560    18.6680 h1         1 OVD       0.028700
     45 HAM         -2.9900    37.2970    19.5940 hc         1 OVD       0.055700
     46 H2          -2.7570    37.9440    17.9680 hc         1 OVD       0.055700
     47 HAO          2.9450    27.7310    18.2310 h1         1 OVD       0.035200
     48 H64          2.5540    28.5030    16.6870 h1         1 OVD       0.035200
     49 HAP         -1.5940    27.4310    15.7930 h1         1 OVD       0.088700
     50 HAQ         -1.1940    26.1680    18.5520 h1         1 OVD       0.043700
     51 HAR          1.1440    25.8820    17.9410 h1         1 OVD       0.040700
     52 HAS          0.5860    28.0150    18.9820 h1         1 OVD       0.057700
     53 HAU         -1.6400    28.7250    18.5710 h2         1 OVD       0.046700
     54 H3          -4.5160    39.2280    19.1860 hc         1 OVD       0.033367
     55 HAY         -5.2280    38.3960    17.7860 hc         1 OVD       0.033367
     56 H65         -5.4630    37.7440    19.4250 hc         1 OVD       0.033367
     57 HAZ         -1.0350    23.7140    18.5370 h1         1 OVD       0.036700
     58 H66          0.3780    23.7850    17.4600 h1         1 OVD       0.036700
     59 HBB         -3.3920    22.9030    16.3380 h4         1 OVD       0.169000
     60 HBC         -3.1170    20.5230    15.2650 hn         1 OVD       0.379000
     61 H32          0.0760    30.4990    16.6330 ho         1 OVD       0.539000
     62 H67         -4.4310    30.5520    20.6450 ho         1 OVD       0.503000
     63 HAN         -3.7240    27.9010    16.6610 ho         1 OVD       0.513000
     64 HAV          0.5120    25.6740    15.5960 ho         1 OVD       0.502000
     65 HAW          3.4710    30.0320    18.1040 ho         1 OVD       0.512000
     66 CAF         -3.7230    36.0080    18.0180 c3         1 OVD       0.162600
     67 C7           0.5780    35.3830    16.6640 c          1 OVD       0.608100
     68 OAW          2.5480    29.7800    18.3410 oh         1 OVD      -0.713000
     69 CAZ         -0.7200    23.7760    17.4880 c3         1 OVD       0.147300
@<TRIPOS>BOND
     1     1     2 1   
     2     1     6 1   
     3     1    24 1   
     4     1    32 1   
     5     2     3 1   
     6     2    25 1   
     7     2    33 1   
     8     3    26 1   
     9     3    34 1   
    10     3    35 1   
    11     4    36 1   
    12     4    37 1   
    13     4    38 1   
    14     4    67 1   
    15     5     8 1   
    16     5    39 1   
    17     5    67 1   
    18     6     8 1   
    19     6    23 1   
    20     6    40 1   
    21     7     8 1   
    22     7    22 1   
    23     7    25 1   
    24     7    41 1   
    25     8    42 1   
    26     9    16 1   
    27     9    45 1   
    28     9    46 1   
    29     9    66 1   
    30    10    14 1   
    31    10    47 1   
    32    10    48 1   
    33    10    68 1   
    34    11    12 1   
    35    11    15 1   
    36    11    28 1   
    37    11    49 1   
    38    12    13 1   
    39    12    31 1   
    40    12    50 1   
    41    13    14 1   
    42    13    30 1   
    43    13    51 1   
    44    14    29 1   
    45    14    52 1   
    46    15    24 1   
    47    15    29 1   
    48    15    53 1   
    49    16    54 1   
    50    16    55 1   
    51    16    56 1   
    52    17    18 2   
    53    17    21 1   
    54    17    69 1   
    55    18    19 1   
    56    18    59 1   
    57    19    20 1   
    58    19    60 1   
    59    20    21 2   
    60    22    66 1   
    61    23    61 1   
    62    26    62 1   
    63    27    67 2   
    64    28    63 1   
    65    30    64 1   
    66    31    69 1   
    67    43    66 1   
    68    44    66 1   
    69    57    69 1   
    70    58    69 1   
    71    65    68 1   
@<TRIPOS>SUBSTRUCTURE
     1 OVD         1 TEMP              0 ****  ****    0 ROOT
