@<TRIPOS>MOLECULE
OVD
   69    71     1     0     0
SMALL
abcg2


@<TRIPOS>ATOM
      1 C4          -1.7790    31.1510    17.6200 c6         1 OVD       0.109300
      2 C5          -3.2050    31.6980    17.7060 c6         1 OVD       0.179300
      3 C6          -4.1280    30.8440    18.5470 c3         1 OVD       0.168600
      4 C8           1.1780    36.2610    15.8140 c3         1 OVD      -0.174100
      5 N2          -0.2880    34.4470    16.4670 ns         1 OVD      -0.491900
      6 C3          -0.8570    32.1060    16.8630 c6         1 OVD       0.155300
      7 C1          -2.4870    33.9400    17.4370 c6         1 OVD       0.379300
      8 C2          -1.0100    33.5500    17.3430 c6         1 OVD       0.089700
      9 CAM         -3.7620    37.2390    18.4030 c3         1 OVD      -0.082400
     10 CAO          2.4800    28.2650    17.4670 c3         1 OVD       0.162600
     11 CAP         -1.7050    27.5350    16.8990 c6         1 OVD       0.156300
     12 CAQ         -0.8870    26.3560    17.4060 c6         1 OVD       0.186300
     13 CAR          0.6160    26.5720    17.1630 c6         1 OVD       0.113300
     14 CAS          1.0320    27.9310    17.7350 c6         1 OVD       0.153300
     15 CAU         -1.1530    28.8330    17.4860 c6         1 OVD       0.361300
     16 CAY         -5.0930    37.9810    18.3050 c3         1 OVD      -0.088100
     17 CBA         -1.6860    22.8450    16.7250 cc         1 OVD       0.195300
     18 CBB         -2.8570    22.2150    17.0790 cd         1 OVD      -0.177000
     19 NBC         -3.0480    21.3020    16.1100 na         1 OVD      -0.020200
     20 NBD         -2.0690    21.3420    15.1980 nd         1 OVD      -0.198800
     21 NBE         -1.2390    22.2760    15.5690 nc         1 OVD      -0.339000
     22 O1          -2.5800    35.1930    18.0120 os         1 OVD      -0.432000
     23 O3           0.5120    31.7550    17.0040 oh         1 OVD      -0.720000
     24 O4          -1.8390    29.8970    16.9210 os         1 OVD      -0.464000
     25 O5          -3.1740    33.0080    18.2620 os         1 OVD      -0.471000
     26 O6          -3.5660    30.6590    19.8460 oh         1 OVD      -0.715000
     27 O7           0.8900    35.5300    18.0780 o          1 OVD      -0.597100
     28 OAN         -3.0550    27.3510    17.3020 oh         1 OVD      -0.714000
     29 OAT          0.2270    28.9680    17.1590 os         1 OVD      -0.488000
     30 OAV          0.8660    26.4790    15.7640 oh         1 OVD      -0.689000
     31 OAX         -1.3850    25.1910    16.7760 os         1 OVD      -0.424000
     32 H4          -1.3910    30.9940    18.6280 h1         1 OVD       0.092700
     33 H5          -3.6280    31.7360    16.6920 h1         1 OVD       0.044700
     34 H62         -5.0980    31.3470    18.6110 h1         1 OVD       0.034700
     35 H61         -4.2700    29.8850    18.0460 h1         1 OVD       0.034700
     36 H82          2.2420    36.3920    16.0030 hc         1 OVD       0.058367
     37 H81          1.0280    35.8640    14.8110 hc         1 OVD       0.058367
     38 H83          0.7020    37.2420    15.8770 hc         1 OVD       0.058367
     39 H22         -0.4790    34.3870    15.4790 hn         1 OVD       0.304500
     40 H31         -1.1490    32.0600    15.8030 h1         1 OVD       0.033700
     41 H1          -2.9530    33.9340    16.4380 h2         1 OVD       0.013700
     42 H21         -0.5790    33.6460    18.3390 h1         1 OVD       0.124700
     43 HAF         -4.1600    35.8110    16.8280 h1         1 OVD       0.028700
     44 H63         -4.6090    35.2540    18.4510 h1         1 OVD       0.028700
     45 HAM         -3.4270    37.2090    19.4440 hc         1 OVD       0.055700
     46 H2          -2.9930    37.7680    17.8330 hc         1 OVD       0.055700
     47 HAO          3.0950    27.4040    17.7540 h1         1 OVD       0.035200
     48 H64          2.6200    28.4510    16.3980 h1         1 OVD       0.035200
     49 HAP         -1.6280    27.5930    15.8090 h1         1 OVD       0.088700
     50 HAQ         -1.0380    26.2790    18.4920 h1         1 OVD       0.043700
     51 HAR          1.1750    25.8000    17.6990 h1         1 OVD       0.040700
     52 HAS          0.8680    27.9130    18.8210 h1         1 OVD       0.057700
     53 HAU         -1.2650    28.8320    18.5780 h2         1 OVD       0.046700
     54 H3          -5.0000    38.9960    18.6920 hc         1 OVD       0.033367
     55 HAY         -5.4330    38.0470    17.2680 hc         1 OVD       0.033367
     56 H65         -5.8700    37.4720    18.8810 hc         1 OVD       0.033367
     57 HAZ         -1.2160    23.9900    18.4560 h1         1 OVD       0.036700
     58 H66          0.1060    23.8280    17.2820 h1         1 OVD       0.036700
     59 HBB         -3.5310    22.3410    17.9080 h4         1 OVD       0.169000
     60 HBC         -3.7990    20.6320    16.0180 hn         1 OVD       0.379000
     61 H32          0.5910    30.7830    16.9650 ho         1 OVD       0.539000
     62 H67         -4.1190    30.0310    20.3250 ho         1 OVD       0.503000
     63 HAN         -3.5910    28.0140    16.8480 ho         1 OVD       0.513000
     64 HAV          1.7640    26.1560    15.6280 ho         1 OVD       0.502000
     65 HAW          3.6810    29.7440    17.9150 ho         1 OVD       0.512000
     66 CAF         -3.8650    35.8200    17.8830 c3         1 OVD       0.162600
     67 C7           0.5900    35.3810    16.8930 c          1 OVD       0.608100
     68 OAW          2.8290    29.4180    18.2300 oh         1 OVD      -0.713000
     69 CAZ         -0.9740    23.9670    17.3890 c3         1 OVD       0.147300
@<TRIPOS>BOND
     1     1     2 1   
     2     1     6 1   
     3     1    24 1   
     4     1    32 1   
     5     2     3 1   
     6     2    25 1   
     7     2    33 1   
     8     3    26 1   
     9     3    34 1   
    10     3    35 1   
    11     4    36 1   
    12     4    37 1   
    13     4    38 1   
    14     4    67 1   
    15     5     8 1   
    16     5    39 1   
    17     5    67 1   
    18     6     8 1   
    19     6    23 1   
    20     6    40 1   
    21     7     8 1   
    22     7    22 1   
    23     7    25 1   
    24     7    41 1   
    25     8    42 1   
    26     9    16 1   
    27     9    45 1   
    28     9    46 1   
    29     9    66 1   
    30    10    14 1   
    31    10    47 1   
    32    10    48 1   
    33    10    68 1   
    34    11    12 1   
    35    11    15 1   
    36    11    28 1   
    37    11    49 1   
    38    12    13 1   
    39    12    31 1   
    40    12    50 1   
    41    13    14 1   
    42    13    30 1   
    43    13    51 1   
    44    14    29 1   
    45    14    52 1   
    46    15    24 1   
    47    15    29 1   
    48    15    53 1   
    49    16    54 1   
    50    16    55 1   
    51    16    56 1   
    52    17    18 2   
    53    17    21 1   
    54    17    69 1   
    55    18    19 1   
    56    18    59 1   
    57    19    20 1   
    58    19    60 1   
    59    20    21 2   
    60    22    66 1   
    61    23    61 1   
    62    26    62 1   
    63    27    67 2   
    64    28    63 1   
    65    30    64 1   
    66    31    69 1   
    67    43    66 1   
    68    44    66 1   
    69    57    69 1   
    70    58    69 1   
    71    65    68 1   
@<TRIPOS>SUBSTRUCTURE
     1 OVD         1 TEMP              0 ****  ****    0 ROOT
