@<TRIPOS>MOLECULE
OVE
   36    38     1     0     0
SMALL
No Charge or Current Charge


@<TRIPOS>ATOM
      1 O1P          1.0600     4.2080     0.2780 o          1 OVE      -0.734500
      2 P            0.7070     2.7600     0.2770 p5         1 OVE       1.215800
      3 S2P          0.2910     2.1360     2.2250 sh         1 OVE      -0.664200
      4 O3P         -0.4360     2.4420    -0.6200 o          1 OVE      -0.734500
      5 O2           2.0090     1.8440    -0.0080 os         1 OVE      -0.521400
      6 C2           1.9940     0.3870     0.0980 c5         1 OVE       0.204300
      7 C3           3.2340    -0.1590    -0.6940 c5         1 OVE       0.126300
      8 O3           3.4320     0.4730    -1.9800 oh         1 OVE      -0.666000
      9 C1           0.8130    -0.3260    -0.6670 c5         1 OVE       0.281300
     10 O4           1.3870    -1.5130    -1.2780 os         1 OVE      -0.444000
     11 C4           2.7760    -1.6410    -0.8690 c5         1 OVE       0.123300
     12 C5           2.9090    -2.5210     0.4150 c3         1 OVE       0.141600
     13 O5           2.6480    -3.9050     0.1260 oh         1 OVE      -0.706000
     14 N9          -0.3790    -0.7240     0.0900 na         1 OVE      -0.278300
     15 C8          -0.4250    -1.1070     1.4360 cc         1 OVE       0.423700
     16 N7          -1.6840    -1.3650     1.8340 nd         1 OVE      -0.573100
     17 C10         -2.4360    -1.1500     0.6750 ca         1 OVE      -0.072600
     18 C6          -3.8270    -1.2710     0.4700 ca         1 OVE       0.445900
     19 N6          -4.6890    -1.6430     1.4560 nv         1 OVE      -1.078900
     20 C9          -1.6580    -0.7650    -0.3880 ca         1 OVE       0.159500
     21 N3          -2.1780    -0.5050    -1.6040 nb         1 OVE      -0.202000
     22 C7          -3.5220    -0.6440    -1.7090 ca         1 OVE       0.177900
     23 N1          -4.3780    -1.0150    -0.7260 nb         1 OVE      -0.313000
     24 H2P         -0.6680     1.3830     1.6410 hs         1 OVE       0.282800
     25 H2           2.0480     0.1010     1.1550 h1         1 OVE       0.042700
     26 H3           4.1480    -0.0880    -0.0880 h1         1 OVE       0.060700
     27 H1           0.4610     0.3290    -1.4740 h2         1 OVE       0.121700
     28 HA           4.2960     0.1620    -2.3320 ho         1 OVE       0.485000
     29 H4           3.3410    -2.1340    -1.6720 h1         1 OVE       0.069700
     30 H5'1         3.9310    -2.4120     0.8020 h1         1 OVE       0.023200
     31 H5'2         2.2260    -2.1610     1.1930 h1         1 OVE       0.023200
     32 H5           2.7630    -4.4060     0.9670 ho         1 OVE       0.496000
     33 H7          -3.9580    -0.4360    -2.6850 h5         1 OVE       0.036100
     34 H8           0.4570    -1.1600     2.0620 h5         1 OVE       0.059800
     35 H61N        -4.3290    -1.6310     2.4070 hn         1 OVE       0.493500
     36 H62N        -5.6770    -1.4340     1.3360 hn         1 OVE       0.493500
@<TRIPOS>BOND
     1     1     2 1   
     2     2     3 1   
     3     2     4 1   
     4     2     5 1   
     5     3    24 1   
     6     5     6 1   
     7     6     7 1   
     8     6     9 1   
     9     6    25 1   
    10     7     8 1   
    11     7    11 1   
    12     7    26 1   
    13     8    28 1   
    14     9    10 1   
    15     9    14 1   
    16     9    27 1   
    17    10    11 1   
    18    11    12 1   
    19    11    29 1   
    20    12    13 1   
    21    12    30 1   
    22    12    31 1   
    23    13    32 1   
    24    14    15 1   
    25    14    20 1   
    26    15    16 2   
    27    15    34 1   
    28    16    17 1   
    29    17    18 ar  
    30    17    20 ar  
    31    18    19 1   
    32    18    23 ar  
    33    19    35 1   
    34    19    36 1   
    35    20    21 ar  
    36    21    22 ar  
    37    22    23 ar  
    38    22    33 1   
@<TRIPOS>SUBSTRUCTURE
     1 OVE         1 TEMP              0 ****  ****    0 ROOT
