@<TRIPOS>MOLECULE
OVE
   36    38     1     0     0
SMALL
abcg2


@<TRIPOS>ATOM
      1 O1P         -0.2050     3.5670    -0.4200 o          1 OVE      -0.734500
      2 P            0.1820     2.3680     0.3750 p5         1 OVE       1.215800
      3 S2P          1.7030     3.0690     1.7260 sh         1 OVE      -0.664200
      4 O3P         -0.7610     1.5120     1.1500 o          1 OVE      -0.734500
      5 O2           1.0660     1.4360    -0.6580 os         1 OVE      -0.521400
      6 C2           1.5070     0.1800    -0.2480 c5         1 OVE       0.204300
      7 C3           2.9480    -0.1300    -0.6260 c5         1 OVE       0.126300
      8 O3           3.1580     0.3150    -1.9390 oh         1 OVE      -0.666000
      9 C1           0.7540    -0.9580    -0.9440 c5         1 OVE       0.281300
     10 O4           1.6140    -2.0590    -0.9070 os         1 OVE      -0.444000
     11 C4           2.9330    -1.6570    -0.5180 c5         1 OVE       0.123300
     12 C5           3.2600    -2.1400     0.8820 c3         1 OVE       0.141600
     13 O5           3.0920    -3.5340     0.9260 oh         1 OVE      -0.706000
     14 N9          -0.4870    -1.3000    -0.2950 na         1 OVE      -0.278300
     15 C8          -0.6450    -2.0010     0.8680 cc         1 OVE       0.423700
     16 N7          -1.8760    -2.0340     1.2870 nd         1 OVE      -0.573100
     17 C10         -2.5690    -1.2980     0.3610 ca         1 OVE      -0.072600
     18 C6          -3.9220    -0.9410     0.2440 ca         1 OVE       0.445900
     19 N6          -4.8530    -1.3350     1.1190 nv         1 OVE      -1.078900
     20 C9          -1.7210    -0.8260    -0.6280 ca         1 OVE       0.159500
     21 N3          -2.0660    -0.0820    -1.6750 nb         1 OVE      -0.202000
     22 C7          -3.3570     0.1910    -1.6770 ca         1 OVE       0.177900
     23 N1          -4.2840    -0.1830    -0.7970 nb         1 OVE      -0.313000
     24 H2P          1.6290     2.0780     2.6220 hs         1 OVE       0.282800
     25 H2           1.4090     0.0500     0.8370 h1         1 OVE       0.042700
     26 H3           3.6610     0.3200     0.0760 h1         1 OVE       0.060700
     27 H1           0.5010    -0.6730    -1.9710 h2         1 OVE       0.121700
     28 HA           4.0640     0.1120    -2.1890 ho         1 OVE       0.485000
     29 H4           3.6400    -2.1100    -1.2200 h1         1 OVE       0.069700
     30 H5'1         4.2930    -1.8410     1.1020 h1         1 OVE       0.023200
     31 H5'2         2.6220    -1.6350     1.6210 h1         1 OVE       0.023200
     32 H5           3.3180    -3.8340     1.8110 ho         1 OVE       0.496000
     33 H7          -3.7180     0.7970    -2.5010 h5         1 OVE       0.036100
     34 H8           0.1840    -2.4980     1.3480 h5         1 OVE       0.059800
     35 H61N        -4.5960    -1.8310     1.9550 hn         1 OVE       0.493500
     36 H62N        -5.7910    -0.9830     1.0490 hn         1 OVE       0.493500
@<TRIPOS>BOND
     1     1     2 1   
     2     2     3 1   
     3     2     4 1   
     4     2     5 1   
     5     3    24 1   
     6     5     6 1   
     7     6     7 1   
     8     6     9 1   
     9     6    25 1   
    10     7     8 1   
    11     7    11 1   
    12     7    26 1   
    13     8    28 1   
    14     9    10 1   
    15     9    14 1   
    16     9    27 1   
    17    10    11 1   
    18    11    12 1   
    19    11    29 1   
    20    12    13 1   
    21    12    30 1   
    22    12    31 1   
    23    13    32 1   
    24    14    15 1   
    25    14    20 1   
    26    15    16 2   
    27    15    34 1   
    28    16    17 1   
    29    17    18 ar  
    30    17    20 ar  
    31    18    19 1   
    32    18    23 ar  
    33    19    35 1   
    34    19    36 1   
    35    20    21 ar  
    36    21    22 ar  
    37    22    23 ar  
    38    22    33 1   
@<TRIPOS>SUBSTRUCTURE
     1 OVE         1 TEMP              0 ****  ****    0 ROOT
