@<TRIPOS>MOLECULE
OVF
   52    55     1     0     0
SMALL
No Charge or Current Charge


@<TRIPOS>ATOM
      1 N1           9.2950     0.5060    22.6830 n          1 OVF      -0.233400
      2 N3           7.2960    -0.1040    18.2820 nc         1 OVF      -0.153400
      3 C4           8.4230    -0.8710    24.5360 ca         1 OVF      -0.061000
      4 C5           9.2500    -0.7450    23.4030 ca         1 OVF      -0.138000
      5 C6           9.8110    -1.9120    22.8470 ca         1 OVF      -0.061000
      6 C7           9.6410    -3.1560    23.4760 ca         1 OVF      -0.187000
      7 C8           9.7120     1.7130    23.4380 c3         1 OVF       0.150300
      8 C10         12.0510     1.1450    24.2530 ca         1 OVF      -0.095000
      9 C13         13.1930     3.0760    22.5640 ca         1 OVF       0.119000
     10 C15          9.0050     0.6490    21.2980 c          1 OVF       0.586100
     11 C17          5.3810     0.7790    18.8710 ca         1 OVF       0.015400
     12 C20          4.2030     1.3720    21.3310 ca         1 OVF      -0.077000
     13 C21          5.4890     0.7920    21.2940 ca         1 OVF      -0.111000
     14 C22          6.0340     0.5150    20.0310 ca         1 OVF      -0.058200
     15 O            9.2750     1.6860    20.6970 o          1 OVF      -0.578100
     16 C16          8.2740    -0.5000    20.5820 c3         1 OVF       0.012600
     17 N2           7.2290    -0.0290    19.6640 na         1 OVF       0.065600
     18 C19          3.5130     1.6530    20.1250 ca         1 OVF      -0.140000
     19 C18          4.1030     1.3550    18.8760 ca         1 OVF      -0.027000
     20 N4           6.1620     0.3980    17.7870 nd         1 OVF      -0.216400
     21 C3           8.2530    -2.1170    25.1620 ca         1 OVF      -0.187000
     22 C2           8.8680    -3.2740    24.6470 ca         1 OVF       0.343000
     23 N            8.6960    -4.5340    25.2790 nh         1 OVF      -0.824400
     24 C1           9.7240    -5.5970    25.1780 c3         1 OVF       0.211600
     25 C            7.4820    -4.8430    26.0720 c3         1 OVF       0.211600
     26 C9          11.2210     1.9250    23.4240 ca         1 OVF      -0.102300
     27 C14         11.8000     2.8920    22.5770 ca         1 OVF      -0.087000
     28 C12         14.0160     2.2980    23.3940 ca         1 OVF      -0.098000
     29 C11         13.4450     1.3310    24.2400 ca         1 OVF      -0.105000
     30 H1           7.9030    -0.0040    24.9380 ha         1 OVF       0.122000
     31 H2          10.4090    -1.8550    21.9400 ha         1 OVF       0.122000
     32 H3          10.1020    -4.0340    23.0340 ha         1 OVF       0.119000
     33 H4           9.2060     2.5990    23.0310 h1         1 OVF       0.072200
     34 H5           9.3850     1.6250    24.4810 h1         1 OVF       0.072200
     35 H6          11.6160     0.3920    24.9070 ha         1 OVF       0.117000
     36 H7           3.7410     1.6050    22.2880 ha         1 OVF       0.114000
     37 H8           6.0300     0.5710    22.2120 ha         1 OVF       0.121000
     38 H9           7.7950    -1.1460    21.3250 h1         1 OVF       0.091200
     39 H10          9.0150    -1.0890    20.0320 h1         1 OVF       0.091200
     40 H11          2.5220     2.1000    20.1610 ha         1 OVF       0.117000
     41 H12          3.5820     1.5660    17.9440 ha         1 OVF       0.133000
     42 H13          7.6350    -2.1750    26.0520 ha         1 OVF       0.119000
     43 H14          9.6680    -6.2780    26.0380 h1         1 OVF       0.039533
     44 H15          9.5840    -6.1830    24.2600 h1         1 OVF       0.039533
     45 H16         10.7320    -5.1600    25.1680 h1         1 OVF       0.039533
     46 H17          7.5860    -4.4670    27.0980 h1         1 OVF       0.039533
     47 H18          6.5950    -4.3850    25.6150 h1         1 OVF       0.039533
     48 H19          7.3090    -5.9270    26.1140 h1         1 OVF       0.039533
     49 H20         11.1750     3.4970    21.9260 ha         1 OVF       0.143000
     50 H21         15.0940     2.4430    23.3810 ha         1 OVF       0.130000
     51 H22         14.0800     0.7250    24.8820 ha         1 OVF       0.119000
     52 Cl          13.9080     4.2830    21.5030 cl         1 OVF      -0.210000
@<TRIPOS>BOND
     1     1     4 1   
     2     1     7 1   
     3     1    10 1   
     4     2    17 1   
     5     2    20 2   
     6     3     4 ar  
     7     3    21 ar  
     8     3    30 1   
     9     4     5 ar  
    10     5     6 ar  
    11     5    31 1   
    12     6    22 ar  
    13     6    32 1   
    14     7    26 1   
    15     7    33 1   
    16     7    34 1   
    17     8    26 ar  
    18     8    29 ar  
    19     8    35 1   
    20     9    27 ar  
    21     9    28 ar  
    22     9    52 1   
    23    10    15 2   
    24    10    16 1   
    25    11    14 ar  
    26    11    19 ar  
    27    11    20 1   
    28    12    13 ar  
    29    12    18 ar  
    30    12    36 1   
    31    13    14 ar  
    32    13    37 1   
    33    14    17 1   
    34    16    17 1   
    35    16    38 1   
    36    16    39 1   
    37    18    19 ar  
    38    18    40 1   
    39    19    41 1   
    40    21    22 ar  
    41    21    42 1   
    42    22    23 1   
    43    23    24 1   
    44    23    25 1   
    45    24    43 1   
    46    24    44 1   
    47    24    45 1   
    48    25    46 1   
    49    25    47 1   
    50    25    48 1   
    51    26    27 ar  
    52    27    49 1   
    53    28    29 ar  
    54    28    50 1   
    55    29    51 1   
@<TRIPOS>SUBSTRUCTURE
     1 OVF         1 TEMP              0 ****  ****    0 ROOT
