@<TRIPOS>MOLECULE
OVF
   52    55     1     0     0
SMALL
abcg2


@<TRIPOS>ATOM
      1 N1           8.9620     0.7470    23.0290 n          1 OVF      -0.233400
      2 N3           7.3910     0.1320    18.8100 nc         1 OVF      -0.153400
      3 C4           8.2130    -0.9720    24.6040 ca         1 OVF      -0.061000
      4 C5           9.0630    -0.5740    23.5770 ca         1 OVF      -0.138000
      5 C6          10.0320    -1.4630    23.1250 ca         1 OVF      -0.061000
      6 C7          10.1470    -2.7290    23.6730 ca         1 OVF      -0.187000
      7 C8           9.6760     1.8180    23.7390 c3         1 OVF       0.150300
      8 C10         11.9410     1.3590    24.7560 ca         1 OVF      -0.095000
      9 C13         13.1570     1.5460    22.2880 ca         1 OVF       0.119000
     10 C15          8.3330     1.0120    21.8620 c          1 OVF       0.586100
     11 C17          5.4240     1.0270    18.6540 ca         1 OVF       0.015400
     12 C20          3.5190     1.6590    20.5480 ca         1 OVF      -0.077000
     13 C21          4.6930     1.0870    20.9980 ca         1 OVF      -0.111000
     14 C22          5.6400     0.7740    20.0180 ca         1 OVF      -0.058200
     15 O            8.2910     2.1230    21.3420 o          1 OVF      -0.578100
     16 C16          7.6510    -0.1940    21.2010 c3         1 OVF       0.012600
     17 N2           6.8760     0.2060    20.0560 na         1 OVF       0.065600
     18 C19          3.2880     1.9150    19.1760 ca         1 OVF      -0.140000
     19 C18          4.2270     1.6070    18.2140 ca         1 OVF      -0.027000
     20 N4           6.5380     0.6090    17.9620 nd         1 OVF      -0.216400
     21 C3           8.3190    -2.2320    25.1670 ca         1 OVF      -0.187000
     22 C2           9.3020    -3.1470    24.7250 ca         1 OVF       0.343000
     23 N            9.4340    -4.3870    25.3000 nh         1 OVF      -0.824400
     24 C1          10.3100    -5.3720    24.6880 c3         1 OVF       0.211600
     25 C            8.4200    -4.8620    26.2260 c3         1 OVF       0.211600
     26 C9          11.1720     1.6510    23.6330 ca         1 OVF      -0.102300
     27 C14         11.7900     1.7470    22.3860 ca         1 OVF      -0.087000
     28 C12         13.9360     1.2540    23.4010 ca         1 OVF      -0.098000
     29 C11         13.3140     1.1630    24.6400 ca         1 OVF      -0.105000
     30 H1           7.4530    -0.2880    24.9610 ha         1 OVF       0.122000
     31 H2          10.6990    -1.1650    22.3260 ha         1 OVF       0.122000
     32 H3          10.9040    -3.3920    23.2840 ha         1 OVF       0.119000
     33 H4           9.3580     2.7630    23.3040 h1         1 OVF       0.072200
     34 H5           9.3710     1.7930    24.7850 h1         1 OVF       0.072200
     35 H6          11.4610     1.2740    25.7230 ha         1 OVF       0.117000
     36 H7           2.7520     1.9210    21.2650 ha         1 OVF       0.114000
     37 H8           4.8700     0.8960    22.0470 ha         1 OVF       0.121000
     38 H9           7.0040    -0.7070    21.9120 h1         1 OVF       0.091200
     39 H10          8.4020    -0.9050    20.8650 h1         1 OVF       0.091200
     40 H11          2.3480     2.3650    18.8820 ha         1 OVF       0.117000
     41 H12          4.0540     1.8010    17.1640 ha         1 OVF       0.133000
     42 H13          7.6330    -2.5050    25.9540 ha         1 OVF       0.119000
     43 H14         10.3190    -6.2660    25.3060 h1         1 OVF       0.039533
     44 H15          9.9830    -5.6510    23.6780 h1         1 OVF       0.039533
     45 H16         11.3330    -4.9990    24.6220 h1         1 OVF       0.039533
     46 H17          8.3310    -4.1940    27.0850 h1         1 OVF       0.039533
     47 H18          7.4330    -4.9470    25.7550 h1         1 OVF       0.039533
     48 H19          8.7130    -5.8420    26.5940 h1         1 OVF       0.039533
     49 H20         11.2070     1.9640    21.5010 ha         1 OVF       0.143000
     50 H21         15.0010     1.0990    23.2980 ha         1 OVF       0.130000
     51 H22         13.9040     0.9300    25.5160 ha         1 OVF       0.119000
     52 CL          13.9250     1.6600    20.7150 cl         1 OVF      -0.210000
@<TRIPOS>BOND
     1     1     4 1   
     2     1     7 1   
     3     1    10 1   
     4     2    17 1   
     5     2    20 2   
     6     3     4 ar  
     7     3    21 ar  
     8     3    30 1   
     9     4     5 ar  
    10     5     6 ar  
    11     5    31 1   
    12     6    22 ar  
    13     6    32 1   
    14     7    26 1   
    15     7    33 1   
    16     7    34 1   
    17     8    26 ar  
    18     8    29 ar  
    19     8    35 1   
    20     9    27 ar  
    21     9    28 ar  
    22     9    52 1   
    23    10    15 2   
    24    10    16 1   
    25    11    14 ar  
    26    11    19 ar  
    27    11    20 1   
    28    12    13 ar  
    29    12    18 ar  
    30    12    36 1   
    31    13    14 ar  
    32    13    37 1   
    33    14    17 1   
    34    16    17 1   
    35    16    38 1   
    36    16    39 1   
    37    18    19 ar  
    38    18    40 1   
    39    19    41 1   
    40    21    22 ar  
    41    21    42 1   
    42    22    23 1   
    43    23    24 1   
    44    23    25 1   
    45    24    43 1   
    46    24    44 1   
    47    24    45 1   
    48    25    46 1   
    49    25    47 1   
    50    25    48 1   
    51    26    27 ar  
    52    27    49 1   
    53    28    29 ar  
    54    28    50 1   
    55    29    51 1   
@<TRIPOS>SUBSTRUCTURE
     1 OVF         1 TEMP              0 ****  ****    0 ROOT
