@<TRIPOS>MOLECULE
OVG
   33    34     1     0     0
SMALL
No Charge or Current Charge


@<TRIPOS>ATOM
      1 C12         -4.4070     1.2200    -0.2650 c          1 OVG       0.722000
      2 C15         -3.0060    -1.9590    -0.0190 cc         1 OVG      -0.145900
      3 C01          7.4680     0.7800    -0.1890 c3         1 OVG      -0.087100
      4 C02          6.0280     1.2340     0.1180 c3         1 OVG      -0.075400
      5 C03          4.9770     0.1340    -0.1480 c3         1 OVG      -0.082400
      6 C04          3.5380     0.5910     0.1600 c3         1 OVG       0.170600
      7 C06          1.2940    -0.4240     0.0500 ca         1 OVG       0.143100
      8 C07          0.6600     0.7590     0.5220 ca         1 OVG      -0.238000
      9 C08         -0.7420     0.8020     0.6850 ca         1 OVG       0.012000
     10 C09         -1.4660    -0.3540     0.3680 ca         1 OVG      -0.115800
     11 C10         -2.8650    -0.6520     0.4150 cd         1 OVG      -0.014400
     12 C11         -3.9710     0.2710     0.8630 c3         1 OVG      -0.170200
     13 C17         -0.8640    -1.4940    -0.0870 ca         1 OVG       0.090100
     14 C18          0.5220    -1.5630    -0.2590 ca         1 OVG      -0.171000
     15 O13         -5.2520     0.8250    -1.0550 o          1 OVG      -0.727000
     16 O14         -3.8090     2.2790    -0.3900 o          1 OVG      -0.727000
     17 O16         -1.7620    -2.5080    -0.3400 os         1 OVG      -0.198200
     18 H1          -3.8830    -2.5860    -0.1380 h4         1 OVG       0.222000
     19 H2           7.7450    -0.0800     0.4320 hc         1 OVG       0.029700
     20 H3           7.5680     0.4930    -1.2430 hc         1 OVG       0.029700
     21 H4           8.1770     1.5920     0.0140 hc         1 OVG       0.029700
     22 H5           5.9690     1.5470     1.1680 hc         1 OVG       0.037700
     23 H6           5.7940     2.1160    -0.4920 hc         1 OVG       0.037700
     24 H7           5.0360    -0.1760    -1.1990 hc         1 OVG       0.050200
     25 H8           5.2110    -0.7450     0.4640 hc         1 OVG       0.050200
     26 H9           3.4640     0.8830     1.2160 h1         1 OVG       0.030700
     27 H10          3.2870     1.4590    -0.4650 h1         1 OVG       0.030700
     28 H11          1.2350     1.6480     0.7640 ha         1 OVG       0.103000
     29 H12         -1.2410     1.7000     1.0430 ha         1 OVG       0.134000
     30 H13         -3.5740     0.8490     1.7050 hc         1 OVG       0.032700
     31 H14         -4.8130    -0.3720     1.1480 hc         1 OVG       0.032700
     32 H15          0.9920    -2.4730    -0.6200 ha         1 OVG       0.124000
     33 O05          2.6590    -0.5100    -0.1240 os         1 OVG      -0.361100
@<TRIPOS>BOND
     1     1    12 1   
     2     1    15 1   
     3     1    16 1   
     4     2    11 2   
     5     2    17 1   
     6     2    18 1   
     7     3     4 1   
     8     3    19 1   
     9     3    20 1   
    10     3    21 1   
    11     4     5 1   
    12     4    22 1   
    13     4    23 1   
    14     5     6 1   
    15     5    24 1   
    16     5    25 1   
    17     6    26 1   
    18     6    27 1   
    19     6    33 1   
    20     7     8 ar  
    21     7    14 ar  
    22     7    33 1   
    23     8     9 ar  
    24     8    28 1   
    25     9    10 ar  
    26     9    29 1   
    27    10    11 1   
    28    10    13 ar  
    29    11    12 1   
    30    12    30 1   
    31    12    31 1   
    32    13    14 ar  
    33    13    17 1   
    34    14    32 1   
@<TRIPOS>SUBSTRUCTURE
     1 OVG         1 TEMP              0 ****  ****    0 ROOT
