@<TRIPOS>MOLECULE
OVG
   33    34     1     0     0
SMALL
abcg2


@<TRIPOS>ATOM
      1 C12         -4.1960     1.4630    -0.1490 c          1 OVG       0.722000
      2 C15         -2.9390    -1.9410     0.0960 cc         1 OVG      -0.145900
      3 C01          7.3440     0.8190    -0.2290 c3         1 OVG      -0.087100
      4 C02          5.9040     1.2020     0.0790 c3         1 OVG      -0.075400
      5 C03          4.9290     0.0570    -0.1730 c3         1 OVG      -0.082400
      6 C04          3.5010     0.4740     0.1100 c3         1 OVG       0.170600
      7 C06          1.3200    -0.4920     0.0370 ca         1 OVG       0.143100
      8 C07          0.7090     0.7160     0.4170 ca         1 OVG      -0.238000
      9 C08         -0.6660     0.7990     0.5690 ca         1 OVG       0.012000
     10 C09         -1.4460    -0.3310     0.3550 ca         1 OVG      -0.115800
     11 C10         -2.8530    -0.6380     0.4240 cd         1 OVG      -0.014400
     12 C11         -3.9490     0.2830     0.8210 c3         1 OVG      -0.170200
     13 C17         -0.8090    -1.5150    -0.0210 ca         1 OVG       0.090100
     14 C18          0.5560    -1.6360    -0.1900 ca         1 OVG      -0.171000
     15 O13         -3.5570     1.4800    -1.2150 o          1 OVG      -0.727000
     16 O14         -5.0400     2.2970     0.2350 o          1 OVG      -0.727000
     17 O16         -1.7180    -2.4980    -0.1840 os         1 OVG      -0.198200
     18 H1          -3.7850    -2.6070     0.0170 h4         1 OVG       0.222000
     19 H2           7.6660    -0.0260     0.3830 hc         1 OVG       0.029700
     20 H3           7.4620     0.5330    -1.2750 hc         1 OVG       0.029700
     21 H4           8.0250     1.6470    -0.0320 hc         1 OVG       0.029700
     22 H5           5.8250     1.5250     1.1210 hc         1 OVG       0.037700
     23 H6           5.6160     2.0660    -0.5290 hc         1 OVG       0.037700
     24 H7           5.0130    -0.2740    -1.2130 hc         1 OVG       0.050200
     25 H8           5.1970    -0.7960     0.4560 hc         1 OVG       0.050200
     26 H9           3.4020     0.8080     1.1500 h1         1 OVG       0.030700
     27 H10          3.2240     1.3180    -0.5330 h1         1 OVG       0.030700
     28 H11          1.3030     1.6020     0.5910 ha         1 OVG       0.103000
     29 H12         -1.1150     1.7400     0.8600 ha         1 OVG       0.134000
     30 H13         -3.7420     0.6920     1.8150 hc         1 OVG       0.032700
     31 H14         -4.8830    -0.2770     0.9240 hc         1 OVG       0.032700
     32 H15          1.0220    -2.5680    -0.4840 ha         1 OVG       0.124000
     33 O05          2.6510    -0.6340    -0.1330 os         1 OVG      -0.361100
@<TRIPOS>BOND
     1     1    12 1   
     2     1    15 1   
     3     1    16 1   
     4     2    11 2   
     5     2    17 1   
     6     2    18 1   
     7     3     4 1   
     8     3    19 1   
     9     3    20 1   
    10     3    21 1   
    11     4     5 1   
    12     4    22 1   
    13     4    23 1   
    14     5     6 1   
    15     5    24 1   
    16     5    25 1   
    17     6    26 1   
    18     6    27 1   
    19     6    33 1   
    20     7     8 ar  
    21     7    14 ar  
    22     7    33 1   
    23     8     9 ar  
    24     8    28 1   
    25     9    10 ar  
    26     9    29 1   
    27    10    11 1   
    28    10    13 ar  
    29    11    12 1   
    30    12    30 1   
    31    12    31 1   
    32    13    14 ar  
    33    13    17 1   
    34    14    32 1   
@<TRIPOS>SUBSTRUCTURE
     1 OVG         1 TEMP              0 ****  ****    0 ROOT
