@<TRIPOS>MOLECULE
OVH
   71    73     1     0     0
SMALL
abcg2


@<TRIPOS>ATOM
      1 N           -0.8410    -2.2420   -27.6070 n8         1 OVH      -1.044200
      2 CA          -2.2650    -2.1450   -27.4410 c3         1 OVH       0.112500
      3 C           -3.1110    -3.3510   -27.8510 c          1 OVH       0.585100
      4 O           -4.2640    -3.4810   -27.5100 o          1 OVH      -0.544100
      5 CB          -2.8160    -0.9240   -28.1870 c3         1 OVH      -0.066400
      6 CG          -2.2130     0.4120   -27.7530 c3         1 OVH      -0.053700
      7 CD1         -2.8000     1.5320   -28.6080 c3         1 OVH      -0.090100
      8 CD2         -2.4450     0.6890   -26.2720 c3         1 OVH      -0.090100
      9 C1          -7.1490    -4.7850   -31.5260 c6         1 OVH       0.157600
     10 C13         -9.5050    -5.1000   -25.2970 cc         1 OVH       0.259500
     11 C14         -9.9150    -4.0530   -26.0930 cd         1 OVH      -0.202000
     12 C15         -8.8830    -5.0850   -23.9760 ca         1 OVH      -0.102500
     13 C16         -8.5880    -3.8790   -23.3380 ca         1 OVH      -0.091500
     14 C17         -7.9930    -3.8680   -22.0860 ca         1 OVH      -0.114000
     15 C18         -7.6810    -5.0620   -21.4480 ca         1 OVH      -0.108000
     16 C19         -7.9710    -6.2660   -22.0750 ca         1 OVH      -0.114000
     17 C2          -7.7230    -3.6940   -30.6270 c6         1 OVH      -0.087700
     18 C20         -8.5670    -6.2800   -23.3280 ca         1 OVH      -0.091500
     19 C3          -6.5610    -3.0270   -29.9050 c6         1 OVH       0.137300
     20 C4          -5.5100    -2.5300   -30.9060 c6         1 OVH       0.126300
     21 C5          -5.0940    -3.6050   -31.9100 c6         1 OVH       0.175300
     22 C6          -3.9670    -4.5010   -31.4270 c3         1 OVH       0.175600
     23 C9         -10.9260    -4.0110   -28.3900 c3         1 OVH       0.075600
     24 N10        -10.4160    -4.6440   -27.1870 na         1 OVH       0.126800
     25 N11        -10.3250    -5.9590   -27.0960 nd         1 OVH      -0.205800
     26 N12         -9.7830    -6.2440   -25.9640 nc         1 OVH      -0.354000
     27 N3S         -2.4760    -4.2610   -28.6660 ns         1 OVH      -0.624300
     28 O1S         -2.1280    -6.3090   -29.9950 o          1 OVH      -0.530500
     29 O2S         -3.8470    -6.3540   -28.1670 o          1 OVH      -0.530500
     30 O3          -7.0220    -1.9260   -29.1430 oh         1 OVH      -0.674000
     31 O4          -6.0190    -1.4460   -31.6490 oh         1 OVH      -0.715000
     32 O5          -6.1900    -4.3010   -32.4470 os         1 OVH      -0.433000
     33 O6          -4.3180    -5.1460   -30.1800 os         1 OVH      -0.569700
     34 S           -3.1660    -5.6690   -29.2280 s6         1 OVH       1.434500
     35 H1          -0.4270    -3.0380   -27.1430 hn         1 OVH       0.423500
     36 H2          -0.5310    -2.2010   -28.5680 hn         1 OVH       0.423500
     37 H4          -2.4780    -2.0250   -26.3740 h1         1 OVH       0.098700
     38 H5          -3.9010    -0.8830   -28.0470 hc         1 OVH       0.043700
     39 H6          -2.6480    -1.0610   -29.2620 hc         1 OVH       0.043700
     40 H7          -1.1340     0.3740   -27.9300 hc         1 OVH       0.061700
     41 H8          -2.3700     2.4980   -28.3370 hc         1 OVH       0.035533
     42 H9          -2.6080     1.3700   -29.6700 hc         1 OVH       0.035533
     43 H10         -3.8820     1.6020   -28.4730 hc         1 OVH       0.035533
     44 H11         -1.9470    -0.0400   -25.6310 hc         1 OVH       0.035533
     45 H12         -2.0610     1.6720   -25.9980 hc         1 OVH       0.035533
     46 H13         -3.5110     0.6710   -26.0320 hc         1 OVH       0.035533
     47 H14         -7.9480    -5.2170   -32.1310 h1         1 OVH       0.059200
     48 H15         -6.7410    -5.5990   -30.9130 h1         1 OVH       0.059200
     49 H16         -9.8940    -2.9830   -25.9690 h4         1 OVH       0.166000
     50 H17         -8.8200    -2.9360   -23.8180 ha         1 OVH       0.119000
     51 H18         -7.7730    -2.9220   -21.6080 ha         1 OVH       0.110500
     52 H19         -7.2150    -5.0530   -20.4710 ha         1 OVH       0.110000
     53 H20         -7.7350    -7.2030   -21.5870 ha         1 OVH       0.110500
     54 H21         -8.2230    -2.9590   -31.2700 hc         1 OVH       0.072700
     55 H22         -8.7870    -7.2250   -23.8050 ha         1 OVH       0.119000
     56 H23         -6.1010    -3.7680   -29.2470 h1         1 OVH       0.074700
     57 H24         -4.6120    -2.2170   -30.3490 h1         1 OVH       0.022700
     58 H25         -4.6380    -3.0850   -32.7610 h1         1 OVH       0.092700
     59 H26         -3.7510    -5.2690   -32.1700 h1         1 OVH       0.060200
     60 H27         -3.0760    -3.8810   -31.2940 h1         1 OVH       0.060200
     61 H28         -9.2670    -5.1280   -30.2040 hc         1 OVH       0.053700
     62 H29         -8.2430    -4.7740   -28.8330 hc         1 OVH       0.053700
     63 H30         -9.3780    -2.5320   -28.6050 hc         1 OVH       0.059700
     64 H31        -10.3020    -2.8600   -30.0530 hc         1 OVH       0.059700
     65 H32        -11.6880    -3.2890   -28.0990 h1         1 OVH       0.071700
     66 H33        -11.4120    -4.7940   -28.9700 h1         1 OVH       0.071700
     67 H34         -1.4950    -4.1310   -28.8850 hn         1 OVH       0.340500
     68 H35         -6.4110    -1.7870   -28.4130 ho         1 OVH       0.455000
     69 H36         -6.4870    -0.8730   -31.0300 ho         1 OVH       0.522000
     70 C7          -8.7580    -4.3100   -29.6800 c3         1 OVH      -0.067400
     71 C8          -9.8230    -3.3360   -29.1930 c3         1 OVH      -0.092400
@<TRIPOS>BOND
     1     1     2 1   
     2     1    35 1   
     3     1    36 1   
     4     2     3 1   
     5     2     5 1   
     6     2    37 1   
     7     3     4 2   
     8     3    27 1   
     9     5     6 1   
    10     5    38 1   
    11     5    39 1   
    12     6     7 1   
    13     6     8 1   
    14     6    40 1   
    15     7    41 1   
    16     7    42 1   
    17     7    43 1   
    18     8    44 1   
    19     8    45 1   
    20     8    46 1   
    21     9    17 1   
    22     9    32 1   
    23     9    47 1   
    24     9    48 1   
    25    10    11 2   
    26    10    12 1   
    27    10    26 1   
    28    11    24 1   
    29    11    49 1   
    30    12    13 ar  
    31    12    18 ar  
    32    13    14 ar  
    33    13    50 1   
    34    14    15 ar  
    35    14    51 1   
    36    15    16 ar  
    37    15    52 1   
    38    16    18 ar  
    39    16    53 1   
    40    17    19 1   
    41    17    54 1   
    42    17    70 1   
    43    18    55 1   
    44    19    20 1   
    45    19    30 1   
    46    19    56 1   
    47    20    21 1   
    48    20    31 1   
    49    20    57 1   
    50    21    22 1   
    51    21    32 1   
    52    21    58 1   
    53    22    33 1   
    54    22    59 1   
    55    22    60 1   
    56    23    24 1   
    57    23    65 1   
    58    23    66 1   
    59    23    71 1   
    60    24    25 1   
    61    25    26 2   
    62    27    34 1   
    63    27    67 1   
    64    28    34 2   
    65    29    34 2   
    66    30    68 1   
    67    31    69 1   
    68    33    34 1   
    69    61    70 1   
    70    62    70 1   
    71    63    71 1   
    72    64    71 1   
    73    70    71 1   
@<TRIPOS>SUBSTRUCTURE
     1 OVH         1 TEMP              0 ****  ****    0 ROOT
