@<TRIPOS>MOLECULE
OVH
   71    73     1     0     0
SMALL
No Charge or Current Charge


@<TRIPOS>ATOM
      1 N           -2.5710    -3.0670   -26.1980 n8         1 OVH      -1.044200
      2 CA          -4.0370    -3.1980   -26.5530 c3         1 OVH       0.112500
      3 C           -4.4520    -4.4600   -27.3980 c          1 OVH       0.585100
      4 O           -5.5950    -4.8870   -27.4020 o          1 OVH      -0.544100
      5 CB          -4.5440    -1.9160   -27.2750 c3         1 OVH      -0.066400
      6 CG          -4.3070    -0.5590   -26.5490 c3         1 OVH      -0.053700
      7 CD1         -4.7720     0.6220   -27.4320 c3         1 OVH      -0.090100
      8 CD2         -4.9740    -0.4910   -25.1560 c3         1 OVH      -0.090100
      9 C1          -7.1290    -4.8750   -31.7570 c6         1 OVH       0.157600
     10 C13         -8.2070    -3.9810   -25.3960 cc         1 OVH       0.259500
     11 C14         -8.3920    -2.8480   -26.1210 cd         1 OVH      -0.202000
     12 C15         -7.2270    -4.0550   -24.3070 ca         1 OVH      -0.102500
     13 C16         -6.9320    -2.9210   -23.5190 ca         1 OVH      -0.091500
     14 C17         -6.0070    -3.0060   -22.4640 ca         1 OVH      -0.114000
     15 C18         -5.3790    -4.2280   -22.1740 ca         1 OVH      -0.108000
     16 C19         -5.6860    -5.3680   -22.9330 ca         1 OVH      -0.114000
     17 C2          -7.3550    -3.4350   -31.2050 c6         1 OVH      -0.087700
     18 C20         -6.6120    -5.2850   -23.9870 ca         1 OVH      -0.091500
     19 C3          -5.9860    -2.7070   -30.9560 c6         1 OVH       0.137300
     20 C4          -4.9890    -2.8750   -32.1520 c6         1 OVH       0.126300
     21 C5          -4.9100    -4.3520   -32.6540 c6         1 OVH       0.175300
     22 C6          -4.0560    -5.3260   -31.7640 c3         1 OVH       0.175600
     23 C9          -9.8410    -2.4590   -28.1890 c3         1 OVH       0.075600
     24 N10         -9.3180    -3.2470   -27.0600 na         1 OVH       0.126800
     25 N11         -9.6650    -4.5660   -26.8710 nd         1 OVH      -0.205800
     26 N12         -8.9730    -5.0120   -25.8510 nc         1 OVH      -0.354000
     27 N3S         -3.4490    -5.0440   -28.1120 ns         1 OVH      -0.624300
     28 O1S         -2.2660    -6.4610   -29.8450 o          1 OVH      -0.530500
     29 O2S         -4.4750    -7.2610   -28.8440 o          1 OVH      -0.530500
     30 O3          -6.1950    -1.2900   -30.7790 oh         1 OVH      -0.674000
     31 O4          -5.4290    -1.9870   -33.1930 oh         1 OVH      -0.715000
     32 O5          -6.2440    -4.8770   -32.8980 os         1 OVH      -0.433000
     33 O6          -4.4350    -5.2550   -30.3780 os         1 OVH      -0.569700
     34 S           -3.6010    -6.1810   -29.3110 s6         1 OVH       1.434500
     35 H1          -2.2140    -3.9550   -25.8200 hn         1 OVH       0.423500
     36 H2          -2.0040    -2.8880   -27.0350 hn         1 OVH       0.423500
     37 H4          -4.5970    -3.3030   -25.6120 h1         1 OVH       0.098700
     38 H5          -5.6200    -2.0270   -27.4580 hc         1 OVH       0.043700
     39 H6          -4.0720    -1.8710   -28.2640 hc         1 OVH       0.043700
     40 H7          -3.2270    -0.4370   -26.4010 hc         1 OVH       0.061700
     41 H8          -4.5510     1.5800   -26.9460 hc         1 OVH       0.035533
     42 H9          -4.2580     0.6100   -28.4010 hc         1 OVH       0.035533
     43 H10         -5.8520     0.5720   -27.6160 hc         1 OVH       0.035533
     44 H11         -4.5830    -1.2710   -24.4920 hc         1 OVH       0.035533
     45 H12         -4.7750     0.4770   -24.6800 hc         1 OVH       0.035533
     46 H13         -6.0590    -0.6120   -25.2380 hc         1 OVH       0.035533
     47 H14         -8.0940    -5.2980   -32.0740 h1         1 OVH       0.059200
     48 H15         -6.7370    -5.5380   -30.9750 h1         1 OVH       0.059200
     49 H16         -7.9470    -1.8650   -26.0750 h4         1 OVH       0.166000
     50 H17         -7.4220    -1.9710   -23.7160 ha         1 OVH       0.119000
     51 H18         -5.7810    -2.1240   -21.8690 ha         1 OVH       0.110500
     52 H19         -4.6630    -4.2930   -21.3570 ha         1 OVH       0.110000
     53 H20         -5.2080    -6.3180   -22.7040 ha         1 OVH       0.110500
     54 H21         -7.9240    -2.8760   -31.9610 hc         1 OVH       0.072700
     55 H22         -6.8390    -6.1760   -24.5680 ha         1 OVH       0.119000
     56 H23         -5.5220    -3.1320   -30.0540 h1         1 OVH       0.074700
     57 H24         -3.9880    -2.5670   -31.8150 h1         1 OVH       0.022700
     58 H25         -4.3980    -4.3310   -33.6270 h1         1 OVH       0.092700
     59 H26         -4.1750    -6.3470   -32.1540 h1         1 OVH       0.060200
     60 H27         -3.0030    -5.0410   -31.8890 h1         1 OVH       0.060200
     61 H28         -9.1380    -4.1580   -30.1830 hc         1 OVH       0.053700
     62 H29         -7.7230    -4.1010   -29.1590 hc         1 OVH       0.053700
     63 H30         -7.9680    -1.6520   -28.8790 hc         1 OVH       0.059700
     64 H31         -9.2510    -1.6080   -30.0920 hc         1 OVH       0.059700
     65 H32        -10.1810    -1.4910   -27.8020 h1         1 OVH       0.071700
     66 H33        -10.7150    -2.9760   -28.6050 h1         1 OVH       0.071700
     67 H34         -2.5330    -4.6390   -28.1190 hn         1 OVH       0.340500
     68 H35         -6.5650    -1.1620   -29.8800 ho         1 OVH       0.455000
     69 H36         -5.8960    -1.2890   -32.6660 ho         1 OVH       0.522000
     70 C7          -8.2640    -3.5420   -29.9340 c3         1 OVH      -0.067400
     71 C8          -8.7960    -2.2260   -29.3080 c3         1 OVH      -0.092400
@<TRIPOS>BOND
     1     1     2 1   
     2     1    35 1   
     3     1    36 1   
     4     2     3 1   
     5     2     5 1   
     6     2    37 1   
     7     3     4 2   
     8     3    27 1   
     9     5     6 1   
    10     5    38 1   
    11     5    39 1   
    12     6     7 1   
    13     6     8 1   
    14     6    40 1   
    15     7    41 1   
    16     7    42 1   
    17     7    43 1   
    18     8    44 1   
    19     8    45 1   
    20     8    46 1   
    21     9    17 1   
    22     9    32 1   
    23     9    47 1   
    24     9    48 1   
    25    10    11 2   
    26    10    12 1   
    27    10    26 1   
    28    11    24 1   
    29    11    49 1   
    30    12    13 ar  
    31    12    18 ar  
    32    13    14 ar  
    33    13    50 1   
    34    14    15 ar  
    35    14    51 1   
    36    15    16 ar  
    37    15    52 1   
    38    16    18 ar  
    39    16    53 1   
    40    17    19 1   
    41    17    54 1   
    42    17    70 1   
    43    18    55 1   
    44    19    20 1   
    45    19    30 1   
    46    19    56 1   
    47    20    21 1   
    48    20    31 1   
    49    20    57 1   
    50    21    22 1   
    51    21    32 1   
    52    21    58 1   
    53    22    33 1   
    54    22    59 1   
    55    22    60 1   
    56    23    24 1   
    57    23    65 1   
    58    23    66 1   
    59    23    71 1   
    60    24    25 1   
    61    25    26 2   
    62    27    34 1   
    63    27    67 1   
    64    28    34 2   
    65    29    34 2   
    66    30    68 1   
    67    31    69 1   
    68    33    34 1   
    69    61    70 1   
    70    62    70 1   
    71    63    71 1   
    72    64    71 1   
    73    70    71 1   
@<TRIPOS>SUBSTRUCTURE
     1 OVH         1 TEMP              0 ****  ****    0 ROOT
