@<TRIPOS>MOLECULE
OVJ
   36    38     1     0     0
SMALL
No Charge or Current Charge


@<TRIPOS>ATOM
      1 C12         -2.7480    -0.5380     0.2220 ca         1 OVJ       0.304000
      2 C13         -2.8900     0.3820    -0.8340 ca         1 OVJ      -0.133000
      3 C15         -5.2360     0.7220    -0.2590 ca         1 OVJ       0.088100
      4 C20          0.2270     0.4520     0.0230 ca         1 OVJ      -0.202000
      5 C21          1.5820     0.7510    -0.2410 ca         1 OVJ       0.009000
      6 C22          2.4820    -0.3190    -0.3220 ca         1 OVJ      -0.111800
      7 C02          5.2460     1.5380     0.4570 c          1 OVJ       0.722000
      8 C05          3.9130    -0.3420    -0.5700 cc         1 OVJ      -0.014400
      9 C06          4.2380    -1.6930    -0.5130 cd         1 OVJ      -0.147900
     10 C08          2.0580    -1.6120    -0.1380 ca         1 OVJ       0.087100
     11 C09          0.7270    -1.9410     0.1270 ca         1 OVJ      -0.196000
     12 C10         -0.2050    -0.8870     0.1930 ca         1 OVJ       0.316000
     13 C14         -4.1270     1.0110    -1.0700 ca         1 OVJ      -0.138000
     14 C17         -7.6190     1.1410     0.2350 c3         1 OVJ       0.152900
     15 C18         -5.1040    -0.2130     0.7920 ca         1 OVJ      -0.138000
     16 C19         -3.8640    -0.8400     1.0220 ca         1 OVJ      -0.133000
     17 N11         -1.5370    -1.1920     0.4700 nu         1 OVJ      -1.000000
     18 O01          4.5230     2.4220     0.8940 o          1 OVJ      -0.726000
     19 O03          6.2220     1.1080     1.0550 o          1 OVJ      -0.726000
     20 O07          3.1210    -2.4500    -0.2530 os         1 OVJ      -0.200200
     21 O16         -6.4240     1.3680    -0.5350 os         1 OVJ      -0.346100
     22 H1          -2.0510     0.5980    -1.4880 ha         1 OVJ       0.121500
     23 H2          -0.4820     1.2690     0.1160 ha         1 OVJ       0.112000
     24 H3           1.9170     1.7780    -0.3690 ha         1 OVJ       0.138000
     25 H4           4.2540     1.5200    -1.4730 hc         1 OVJ       0.033200
     26 H5           5.7070     0.4190    -1.3400 hc         1 OVJ       0.033200
     27 H6           5.1870    -2.2050    -0.6390 h4         1 OVJ       0.223000
     28 H7           0.4270    -2.9750     0.2670 ha         1 OVJ       0.110000
     29 H8          -4.2260     1.7200    -1.8880 ha         1 OVJ       0.114500
     30 H9          -8.4420     1.7550    -0.1520 h1         1 OVJ       0.033033
     31 H10         -7.9240     0.0880     0.1790 h1         1 OVJ       0.033033
     32 H11         -7.4600     1.4080     1.2870 h1         1 OVJ       0.033033
     33 H12         -5.9430    -0.4650     1.4340 ha         1 OVJ       0.114500
     34 H13         -3.7700    -1.5570     1.8320 ha         1 OVJ       0.121500
     35 H14         -1.6510    -2.0850     0.9510 hn         1 OVJ       0.484000
     36 C04          4.8220     0.8290    -0.8390 c3         1 OVJ      -0.170200
@<TRIPOS>BOND
     1     1     2 ar  
     2     1    16 ar  
     3     1    17 1   
     4     2    13 ar  
     5     2    22 1   
     6     3    13 ar  
     7     3    15 ar  
     8     3    21 1   
     9     4     5 ar  
    10     4    12 ar  
    11     4    23 1   
    12     5     6 ar  
    13     5    24 1   
    14     6     8 1   
    15     6    10 ar  
    16     7    18 1   
    17     7    19 1   
    18     7    36 1   
    19     8     9 2   
    20     8    36 1   
    21     9    20 1   
    22     9    27 1   
    23    10    11 ar  
    24    10    20 1   
    25    11    12 ar  
    26    11    28 1   
    27    12    17 1   
    28    13    29 1   
    29    14    21 1   
    30    14    30 1   
    31    14    31 1   
    32    14    32 1   
    33    15    16 ar  
    34    15    33 1   
    35    16    34 1   
    36    17    35 1   
    37    25    36 1   
    38    26    36 1   
@<TRIPOS>SUBSTRUCTURE
     1 OVJ         1 TEMP              0 ****  ****    0 ROOT
