@<TRIPOS>MOLECULE
OVJ
   36    38     1     0     0
SMALL
bcc


@<TRIPOS>ATOM
      1 C12         -2.6930    -0.6390     0.2920 ca         1 OVJ       0.165600
      2 C13         -2.8020     0.2690    -0.7660 ca         1 OVJ      -0.151000
      3 C15         -5.1170     0.7010    -0.2230 ca         1 OVJ       0.088100
      4 C20          0.1700     0.3610     0.2000 ca         1 OVJ      -0.220000
      5 C21          1.4750     0.7190    -0.0740 ca         1 OVJ      -0.009000
      6 C22          2.4240    -0.2770    -0.2960 ca         1 OVJ      -0.111800
      7 C02          4.9450     1.7710     0.3850 c          1 OVJ       0.932600
      8 C05          3.8300    -0.3080    -0.6070 cc         1 OVJ      -0.014400
      9 C06          4.1390    -1.6180    -0.6860 cd         1 OVJ      -0.097900
     10 C08          2.0150    -1.6070    -0.2120 ca         1 OVJ       0.087100
     11 C09          0.7140    -2.0020     0.0460 ca         1 OVJ      -0.214000
     12 C10         -0.2280    -0.9930     0.2540 ca         1 OVJ       0.177600
     13 C14         -3.9890     0.9350    -1.0090 ca         1 OVJ      -0.156000
     14 C17         -7.3980     1.1710     0.2200 c3         1 OVJ       0.129700
     15 C18         -5.0270    -0.2190     0.8170 ca         1 OVJ      -0.156000
     16 C19         -3.8240    -0.8660     1.0730 ca         1 OVJ      -0.151000
     17 N11         -1.5280    -1.3530     0.5630 nu         1 OVJ      -0.668000
     18 O01          5.6190     2.7980     0.1670 o          1 OVJ      -0.831300
     19 O03          4.4550     1.4120     1.4680 o          1 OVJ      -0.831300
     20 O07          3.0600    -2.4280    -0.4440 os         1 OVJ      -0.200200
     21 O16         -6.2310     1.3980    -0.5400 os         1 OVJ      -0.322900
     22 H1          -1.9590     0.4550    -1.4190 ha         1 OVJ       0.139500
     23 H2          -0.5570     1.1370     0.3990 ha         1 OVJ       0.130000
     24 H3           1.7490     1.7660    -0.1040 ha         1 OVJ       0.156000
     25 H4           4.3100     1.4700    -1.6550 hc         1 OVJ       0.033200
     26 H5           5.6940     0.5140    -1.2040 hc         1 OVJ       0.033200
     27 H6           5.0660    -2.1250    -0.9050 h4         1 OVJ       0.173000
     28 H7           0.4330    -3.0470     0.0840 ha         1 OVJ       0.128000
     29 H8          -4.0480     1.6370    -1.8310 ha         1 OVJ       0.132500
     30 H9          -8.1650     1.8280    -0.1840 h1         1 OVJ       0.033033
     31 H10         -7.7460     0.1370     0.1410 h1         1 OVJ       0.033033
     32 H11         -7.2530     1.4110     1.2770 h1         1 OVJ       0.033033
     33 H12         -5.8730    -0.4420     1.4520 ha         1 OVJ       0.132500
     34 H13         -3.7720    -1.5650     1.8990 ha         1 OVJ       0.139500
     35 H14         -1.6570    -2.2930     0.9000 hn         1 OVJ       0.428800
     36 C04          4.7200     0.8590    -0.8450 c3         1 OVJ      -0.170200
@<TRIPOS>BOND
     1     1     2 ar  
     2     1    16 ar  
     3     1    17 1   
     4     2    13 ar  
     5     2    22 1   
     6     3    13 ar  
     7     3    15 ar  
     8     3    21 1   
     9     4     5 ar  
    10     4    12 ar  
    11     4    23 1   
    12     5     6 ar  
    13     5    24 1   
    14     6     8 1   
    15     6    10 ar  
    16     7    18 1   
    17     7    19 1   
    18     7    36 1   
    19     8     9 2   
    20     8    36 1   
    21     9    20 1   
    22     9    27 1   
    23    10    11 ar  
    24    10    20 1   
    25    11    12 ar  
    26    11    28 1   
    27    12    17 1   
    28    13    29 1   
    29    14    21 1   
    30    14    30 1   
    31    14    31 1   
    32    14    32 1   
    33    15    16 ar  
    34    15    33 1   
    35    16    34 1   
    36    17    35 1   
    37    25    36 1   
    38    26    36 1   
@<TRIPOS>SUBSTRUCTURE
     1 OVJ         1 TEMP              0 ****  ****    0 ROOT
