@<TRIPOS>MOLECULE
OVK
   64    66     1     0     0
SMALL
No Charge or Current Charge


@<TRIPOS>ATOM
      1 N           -0.0750    -0.0230   -28.5280 n8         1 OVK      -1.045200
      2 CA          -1.5540    -0.1470   -28.2370 c3         1 OVK       0.114500
      3 C           -2.0460    -1.5090   -27.6240 c          1 OVK       0.586100
      4 O           -2.9390    -1.5550   -26.7910 o          1 OVK      -0.546100
      5 CB          -2.3960     0.1890   -29.5000 c3         1 OVK      -0.066400
      6 CG          -2.2310     1.6260   -30.0770 c3         1 OVK      -0.053700
      7 CD1         -3.0060     1.7730   -31.4070 c3         1 OVK      -0.090100
      8 CD2         -2.6540     2.7280   -29.0760 c3         1 OVK      -0.090100
      9 C1          -6.5580    -3.6380   -29.0640 c5         1 OVK       0.175300
     10 C11         -7.0360    -5.1730   -23.5090 cc         1 OVK       0.553500
     11 C13         -7.5360    -6.1180   -22.4920 ca         1 OVK      -0.123500
     12 C14         -7.6890    -7.4910   -22.8010 ca         1 OVK      -0.075000
     13 C15         -8.1650    -8.3960   -21.8360 ca         1 OVK      -0.121000
     14 C16         -8.4970    -7.9460   -20.5490 ca         1 OVK      -0.097000
     15 C17         -8.3510    -6.5880   -20.2270 ca         1 OVK      -0.121000
     16 C18         -7.8750    -5.6800   -21.1890 ca         1 OVK      -0.075000
     17 C2          -5.6670    -2.3830   -29.3420 c5         1 OVK       0.099300
     18 C3          -5.0340    -2.8030   -30.6950 c5         1 OVK       0.117300
     19 C4          -4.7500    -4.3260   -30.4390 c5         1 OVK       0.168300
     20 C5          -3.3310    -4.6160   -29.8650 c3         1 OVK       0.191600
     21 C6          -7.0070    -3.8440   -27.5980 c3         1 OVK      -0.086400
     22 C7          -5.8580    -4.1150   -26.5960 c3         1 OVK       0.094600
     23 N10         -6.8850    -3.8450   -23.2260 nc         1 OVK      -0.387000
     24 N12         -6.7080    -5.5280   -24.7310 nd         1 OVK      -0.521800
     25 N3S         -1.3920    -2.6200   -28.0610 ns         1 OVK      -0.628300
     26 N8          -6.3280    -4.3150   -25.2170 na         1 OVK       0.249600
     27 N9          -6.4350    -3.2920   -24.3140 nd         1 OVK      -0.188800
     28 O1S         -0.8730    -5.0450   -28.5340 o          1 OVK      -0.532500
     29 O2          -6.4190    -1.1620   -29.4900 oh         1 OVK      -0.713000
     30 O2S         -1.9820    -4.3860   -26.3260 o          1 OVK      -0.532500
     31 O3          -5.9750    -2.5630   -31.7490 oh         1 OVK      -0.717000
     32 O4          -5.7710    -4.7710   -29.4960 os         1 OVK      -0.446000
     33 O5          -3.2640    -4.1860   -28.4910 os         1 OVK      -0.574700
     34 S           -1.7930    -4.2010   -27.7670 s6         1 OVK       1.439500
     35 H1           0.4730    -0.3590   -27.7230 hn         1 OVK       0.424000
     36 H2           0.2010    -0.6440   -29.2980 hn         1 OVK       0.424000
     37 H4          -1.7980     0.5920   -27.4600 h1         1 OVK       0.098700
     38 H5          -3.4570     0.0360   -29.2630 hc         1 OVK       0.045700
     39 H6          -2.1540    -0.5410   -30.2830 hc         1 OVK       0.045700
     40 H7          -1.1700     1.7810   -30.3090 hc         1 OVK       0.059700
     41 H8          -2.8490     2.7680   -31.8410 hc         1 OVK       0.035533
     42 H9          -2.6670     1.0300   -32.1390 hc         1 OVK       0.035533
     43 H10         -4.0830     1.6330   -31.2500 hc         1 OVK       0.035533
     44 H11         -2.0150     2.7220   -28.1850 hc         1 OVK       0.035533
     45 H12         -2.5660     3.7200   -29.5350 hc         1 OVK       0.035533
     46 H13         -3.6940     2.5900   -28.7570 hc         1 OVK       0.035533
     47 H14         -7.4590    -3.5980   -29.6930 h1         1 OVK       0.073700
     48 H15         -7.4400    -7.8660   -23.7910 ha         1 OVK       0.131500
     49 H16         -8.2780    -9.4490   -22.0880 ha         1 OVK       0.114000
     50 H17         -8.8650    -8.6480   -19.8030 ha         1 OVK       0.112000
     51 H18         -8.6070    -6.2370   -19.2300 ha         1 OVK       0.114000
     52 H19         -7.7720    -4.6330   -20.9100 ha         1 OVK       0.131500
     53 H20         -4.8870    -2.2690   -28.5760 h1         1 OVK       0.077700
     54 H21         -4.1050    -2.2470   -30.8860 h1         1 OVK       0.053700
     55 H22         -4.8550    -4.8950   -31.3730 h1         1 OVK       0.088700
     56 H23         -3.1370    -5.6940   -29.9420 h1         1 OVK       0.061700
     57 H24         -2.5910    -4.0940   -30.4870 h1         1 OVK       0.061700
     58 H25         -7.5720    -2.9660   -27.2640 hc         1 OVK       0.077700
     59 H26         -7.7070    -4.6880   -27.5590 hc         1 OVK       0.077700
     60 H27         -5.3080    -5.0130   -26.9030 h1         1 OVK       0.083200
     61 H28         -5.1520    -3.2770   -26.5970 h1         1 OVK       0.083200
     62 H29         -0.6800    -2.5480   -28.7640 hn         1 OVK       0.342500
     63 H30         -6.5980    -0.8050   -28.5870 ho         1 OVK       0.519000
     64 H31         -6.5200    -1.8210   -31.3810 ho         1 OVK       0.526000
@<TRIPOS>BOND
     1     1     2 1   
     2     1    35 1   
     3     1    36 1   
     4     2     3 1   
     5     2     5 1   
     6     2    37 1   
     7     3     4 2   
     8     3    25 1   
     9     5     6 1   
    10     5    38 1   
    11     5    39 1   
    12     6     7 1   
    13     6     8 1   
    14     6    40 1   
    15     7    41 1   
    16     7    42 1   
    17     7    43 1   
    18     8    44 1   
    19     8    45 1   
    20     8    46 1   
    21     9    17 1   
    22     9    21 1   
    23     9    32 1   
    24     9    47 1   
    25    10    11 1   
    26    10    23 1   
    27    10    24 2   
    28    11    12 ar  
    29    11    16 ar  
    30    12    13 ar  
    31    12    48 1   
    32    13    14 ar  
    33    13    49 1   
    34    14    15 ar  
    35    14    50 1   
    36    15    16 ar  
    37    15    51 1   
    38    16    52 1   
    39    17    18 1   
    40    17    29 1   
    41    17    53 1   
    42    18    19 1   
    43    18    31 1   
    44    18    54 1   
    45    19    20 1   
    46    19    32 1   
    47    19    55 1   
    48    20    33 1   
    49    20    56 1   
    50    20    57 1   
    51    21    22 1   
    52    21    58 1   
    53    21    59 1   
    54    22    26 1   
    55    22    60 1   
    56    22    61 1   
    57    23    27 2   
    58    24    26 1   
    59    25    34 1   
    60    25    62 1   
    61    26    27 1   
    62    28    34 2   
    63    29    63 1   
    64    30    34 2   
    65    31    64 1   
    66    33    34 1   
@<TRIPOS>SUBSTRUCTURE
     1 OVK         1 TEMP              0 ****  ****    0 ROOT
