@<TRIPOS>MOLECULE
OVK
   64    66     1     0     0
SMALL
abcg2


@<TRIPOS>ATOM
      1 N            0.1240    -0.6320   -28.6890 n8         1 OVK      -1.045200
      2 CA          -1.2300    -0.1850   -28.5100 c3         1 OVK       0.114500
      3 C           -2.2280    -1.1770   -27.9120 c          1 OVK       0.586100
      4 O           -3.3150    -0.8460   -27.4980 o          1 OVK      -0.546100
      5 CB          -1.8140     0.3160   -29.8380 c3         1 OVK      -0.066400
      6 CG          -1.0090     1.4360   -30.5000 c3         1 OVK      -0.053700
      7 CD1         -1.6650     1.8190   -31.8230 c3         1 OVK      -0.090100
      8 CD2         -0.8680     2.6520   -29.5920 c3         1 OVK      -0.090100
      9 C1          -7.3000    -3.4910   -29.0600 c5         1 OVK       0.175300
     10 C11         -7.7690    -5.9890   -23.7690 cc         1 OVK       0.553500
     11 C13         -7.5110    -6.6430   -22.4900 ca         1 OVK      -0.123500
     12 C14         -6.2030    -6.8860   -22.0720 ca         1 OVK      -0.075000
     13 C15         -5.9650    -7.5010   -20.8520 ca         1 OVK      -0.121000
     14 C16         -7.0270    -7.8800   -20.0400 ca         1 OVK      -0.097000
     15 C17         -8.3310    -7.6400   -20.4540 ca         1 OVK      -0.121000
     16 C18         -8.5740    -7.0250   -21.6730 ca         1 OVK      -0.075000
     17 C2          -6.5700    -2.1600   -28.8780 c5         1 OVK       0.099300
     18 C3          -5.6180    -2.1680   -30.0820 c5         1 OVK       0.117300
     19 C4          -5.2670    -3.6510   -30.2060 c5         1 OVK       0.168300
     20 C5          -3.9530    -4.0550   -29.5780 c3         1 OVK       0.191600
     21 C6          -7.9250    -4.0950   -27.8140 c3         1 OVK      -0.086400
     22 C7          -6.9040    -4.4790   -26.7560 c3         1 OVK       0.094600
     23 N10         -8.9930    -5.6920   -24.2370 nc         1 OVK      -0.387000
     24 N12         -6.8330    -5.6040   -24.6170 nd         1 OVK      -0.521800
     25 N3S         -1.8170    -2.4920   -27.9110 ns         1 OVK      -0.628300
     26 N8          -7.5340    -5.0780   -25.5870 na         1 OVK       0.249600
     27 N9          -8.8160    -5.1170   -25.3820 nd         1 OVK      -0.188800
     28 O1S         -1.9420    -4.9300   -27.5480 o          1 OVK      -0.532500
     29 O2          -7.4950    -1.1050   -28.8930 oh         1 OVK      -0.713000
     30 O2S         -3.1740    -3.4280   -25.9640 o          1 OVK      -0.532500
     31 O3          -6.2940    -1.7830   -31.2530 oh         1 OVK      -0.717000
     32 O4          -6.3320    -4.3710   -29.6040 os         1 OVK      -0.446000
     33 O5          -4.0190    -3.7160   -28.1790 os         1 OVK      -0.574700
     34 S           -2.7160    -3.7430   -27.2870 s6         1 OVK       1.439500
     35 H1           0.5590    -0.9790   -27.8460 hn         1 OVK       0.424000
     36 H2           0.2460    -1.2950   -29.4420 hn         1 OVK       0.424000
     37 H4          -1.2240     0.6450   -27.7960 h1         1 OVK       0.098700
     38 H5          -2.8350     0.6660   -29.6640 hc         1 OVK       0.045700
     39 H6          -1.8870    -0.5280   -30.5340 hc         1 OVK       0.045700
     40 H7          -0.0070     1.0550   -30.7160 hc         1 OVK       0.059700
     41 H8          -1.0870     2.5870   -32.3390 hc         1 OVK       0.035533
     42 H9          -1.7440     0.9600   -32.4920 hc         1 OVK       0.035533
     43 H10         -2.6730     2.2110   -31.6660 hc         1 OVK       0.035533
     44 H11         -0.3020     2.4230   -28.6880 hc         1 OVK       0.035533
     45 H12         -0.3430     3.4600   -30.1040 hc         1 OVK       0.035533
     46 H13         -1.8460     3.0330   -29.2880 hc         1 OVK       0.035533
     47 H14         -8.1100    -3.3320   -29.7850 h1         1 OVK       0.073700
     48 H15         -5.3700    -6.5950   -22.6970 ha         1 OVK       0.131500
     49 H16         -4.9480    -7.6830   -20.5340 ha         1 OVK       0.114000
     50 H17         -6.8380    -8.3600   -19.0890 ha         1 OVK       0.112000
     51 H18         -9.1630    -7.9310   -19.8270 ha         1 OVK       0.114000
     52 H19         -9.5920    -6.8420   -21.9900 ha         1 OVK       0.131500
     53 H20         -5.9810    -2.1540   -27.9560 h1         1 OVK       0.077700
     54 H21         -4.7330    -1.5410   -29.9140 h1         1 OVK       0.053700
     55 H22         -5.1820    -3.9160   -31.2670 h1         1 OVK       0.088700
     56 H23         -3.7880    -5.1280   -29.6840 h1         1 OVK       0.061700
     57 H24         -3.1340    -3.5210   -30.0670 h1         1 OVK       0.061700
     58 H25         -8.6370    -3.3690   -27.4160 hc         1 OVK       0.077700
     59 H26         -8.5050    -4.9740   -28.1020 hc         1 OVK       0.077700
     60 H27         -6.1970    -5.2100   -27.1410 h1         1 OVK       0.083200
     61 H28         -6.3410    -3.6170   -26.4010 h1         1 OVK       0.083200
     62 H29         -0.8900    -2.7320   -28.2430 hn         1 OVK       0.342500
     63 H30         -7.1050    -0.3440   -28.4520 ho         1 OVK       0.519000
     64 H31         -6.8450    -1.0210   -31.0330 ho         1 OVK       0.526000
@<TRIPOS>BOND
     1     1     2 1   
     2     1    35 1   
     3     1    36 1   
     4     2     3 1   
     5     2     5 1   
     6     2    37 1   
     7     3     4 2   
     8     3    25 1   
     9     5     6 1   
    10     5    38 1   
    11     5    39 1   
    12     6     7 1   
    13     6     8 1   
    14     6    40 1   
    15     7    41 1   
    16     7    42 1   
    17     7    43 1   
    18     8    44 1   
    19     8    45 1   
    20     8    46 1   
    21     9    17 1   
    22     9    21 1   
    23     9    32 1   
    24     9    47 1   
    25    10    11 1   
    26    10    23 1   
    27    10    24 2   
    28    11    12 ar  
    29    11    16 ar  
    30    12    13 ar  
    31    12    48 1   
    32    13    14 ar  
    33    13    49 1   
    34    14    15 ar  
    35    14    50 1   
    36    15    16 ar  
    37    15    51 1   
    38    16    52 1   
    39    17    18 1   
    40    17    29 1   
    41    17    53 1   
    42    18    19 1   
    43    18    31 1   
    44    18    54 1   
    45    19    20 1   
    46    19    32 1   
    47    19    55 1   
    48    20    33 1   
    49    20    56 1   
    50    20    57 1   
    51    21    22 1   
    52    21    58 1   
    53    21    59 1   
    54    22    26 1   
    55    22    60 1   
    56    22    61 1   
    57    23    27 2   
    58    24    26 1   
    59    25    34 1   
    60    25    62 1   
    61    26    27 1   
    62    28    34 2   
    63    29    63 1   
    64    30    34 2   
    65    31    64 1   
    66    33    34 1   
@<TRIPOS>SUBSTRUCTURE
     1 OVK         1 TEMP              0 ****  ****    0 ROOT
