@<TRIPOS>MOLECULE
OVL
   87    93     1     0     0
SMALL
No Charge or Current Charge


@<TRIPOS>ATOM
      1 C17         17.3960    10.3410    12.8920 cg         1 OVL      -0.121200
      2 C21         12.8530     8.5810    12.8130 c3         1 OVL       0.073800
      3 C22         13.9770     9.5950    10.8470 c3         1 OVL       0.164800
      4 C26         16.5950    10.1850     8.1050 c5         1 OVL       0.140300
      5 C02         12.2260     7.3940    12.0300 c          1 OVL       0.593100
      6 C04         12.8120     5.1120    11.1260 c3         1 OVL       0.110000
      7 C05         13.5410     5.2820     9.7690 c3         1 OVL      -0.122400
      8 C06         15.0840     5.1410     9.8170 c3         1 OVL       0.115000
      9 C08         16.1290     5.8230    11.9840 c          1 OVL       0.662100
     10 C11         16.6820     6.9800    14.1330 c3         1 OVL       0.109000
     11 C12         18.1770     6.6840    14.4380 c5         1 OVL       0.142300
     12 C14         19.6830     8.4600    14.0300 c5         1 OVL       0.316300
     13 C16         18.7850    10.4040    12.5880 cc         1 OVL       0.466700
     14 C18         16.1940    10.2800    13.0680 c1         1 OVL      -0.096100
     15 C19         14.7340    10.1580    13.1870 c3         1 OVL       0.255900
     16 C23         15.2630     9.9730    10.0640 c5         1 OVL       0.122300
     17 C25         17.2490     9.1930     9.1460 c5         1 OVL       0.266300
     18 C27         15.0940    10.1370     8.5290 c5         1 OVL       0.146300
     19 C31         17.2880     7.2040     7.5450 cc         1 OVL       0.402700
     20 C33         18.8850     6.0660     8.4310 ca         1 OVL      -0.106600
     21 C34         18.7690     7.1890     9.2080 ca         1 OVL       0.130500
     22 C36         20.4700     6.4490    10.5430 ca         1 OVL       0.189900
     23 C38         19.8660     5.1170     8.7820 ca         1 OVL       0.453900
     24 C41         20.6030    10.9560    11.5880 ca         1 OVL      -0.103600
     25 C42         20.9410     9.8960    12.3910 ca         1 OVL       0.150500
     26 C44         23.0930    10.0060    11.6200 ca         1 OVL       0.190900
     27 C46         21.6060    11.5290    10.7830 ca         1 OVL       0.454900
     28 C48         18.9710     8.7290    15.4010 c5         1 OVL       0.081300
     29 C49         18.6530     7.2620    15.8130 c5         1 OVL       0.114300
     30 N03         13.0080     6.2630    12.0100 ns         1 OVL      -0.486900
     31 N07         15.7080     6.1060    10.7200 ns         1 OVL      -0.527900
     32 N10         16.3130     6.9530    12.7150 ns         1 OVL      -0.519900
     33 N15         19.7930     9.5370    13.0410 na         1 OVL      -0.268300
     34 N20         14.1380     9.1410    12.2690 n3         1 OVL      -0.720600
     35 N30         17.7560     7.9150     8.6550 na         1 OVL      -0.303300
     36 N32         17.9650     6.0520     7.3760 nd         1 OVL      -0.544100
     37 N35         19.5590     7.4140    10.2740 nb         1 OVL      -0.230000
     38 N37         20.6640     5.3020     9.8460 nb         1 OVL      -0.300000
     39 N39         20.0600     3.9700     8.0790 nv         1 OVL      -1.060900
     40 N40         19.2530    11.2930    11.6960 nd         1 OVL      -0.522100
     41 N43         22.1920     9.3950    12.4270 nb         1 OVL      -0.215000
     42 N45         22.8610    11.0530    10.7920 nb         1 OVL      -0.303000
     43 N47         21.3660    12.5720     9.9460 nv         1 OVL      -1.063900
     44 O01         11.1530     7.4630    11.4430 o          1 OVL      -0.619100
     45 O09         16.2430     4.6970    12.4360 o          1 OVL      -0.652100
     46 O13         19.0210     7.3210    13.4410 os         1 OVL      -0.448000
     47 O24         16.2340     8.9130    10.1350 os         1 OVL      -0.441000
     48 O28         14.4040    11.3390     8.1390 oh         1 OVL      -0.675000
     49 O29         17.0770    11.5300     8.2400 oh         1 OVL      -0.676000
     50 O50         19.8320     6.6230    16.3210 oh         1 OVL      -0.702000
     51 O51         19.8030     9.3760    16.3850 oh         1 OVL      -0.695000
     52 H1          12.0900     9.3690    12.8670 h1         1 OVL       0.064700
     53 H2          13.0120     8.2170    13.8370 h1         1 OVL       0.064700
     54 H3          13.2970    10.4570    10.8130 h1         1 OVL       0.045200
     55 H4          13.4950     8.7980    10.2660 h1         1 OVL       0.045200
     56 H5          16.7260     9.8410     7.0700 h1         1 OVL       0.066700
     57 H6          11.7360     4.9820    10.9450 h1         1 OVL       0.054200
     58 H7          13.1760     4.2070    11.6310 h1         1 OVL       0.054200
     59 H8          13.2780     6.2550     9.3360 hc         1 OVL       0.051700
     60 H9          13.1570     4.5230     9.0770 hc         1 OVL       0.051700
     61 H10         15.3480     4.1210    10.1260 h1         1 OVL       0.059700
     62 H11         15.4910     5.2940     8.8090 h1         1 OVL       0.059700
     63 H12         16.4140     7.9640    14.5330 h1         1 OVL       0.054700
     64 H13         16.0660     6.2470    14.6710 h1         1 OVL       0.054700
     65 H14         18.3250     5.5970    14.3820 h1         1 OVL       0.105700
     66 H15         20.7180     8.1650    14.2510 h2         1 OVL       0.121700
     67 H16         14.2770    11.1430    13.0200 h1         1 OVL       0.055200
     68 H17         14.5290     9.8860    14.2310 h1         1 OVL       0.055200
     69 H18         15.6910    10.8850    10.5010 h1         1 OVL       0.094700
     70 H19         18.1010     9.6920     9.6260 h2         1 OVL       0.113700
     71 H20         14.6030     9.2530     8.0980 h1         1 OVL       0.037700
     72 H21         16.4700     7.5560     6.9270 h5         1 OVL       0.063800
     73 H22         21.1120     6.6130    11.4070 h5         1 OVL       0.053100
     74 H23         24.1080     9.6120    11.6370 h5         1 OVL       0.049100
     75 H24         18.0400     9.2940    15.2670 h1         1 OVL       0.057700
     76 H25         17.8500     7.2240    16.5630 h1         1 OVL       0.054700
     77 H26         13.8890     6.3400    12.5020 hn         1 OVL       0.343500
     78 H27         15.7120     7.0860    10.4550 hn         1 OVL       0.320500
     79 H28         16.1210     7.8360    12.2490 hn         1 OVL       0.326500
     80 H30         20.5530     3.2080     8.5370 hn         1 OVL       0.510000
     81 H31         19.3360     3.7110     7.4140 hn         1 OVL       0.510000
     82 H32         22.0290    12.7390     9.1940 hn         1 OVL       0.509000
     83 H33         20.3920    12.7880     9.7500 hn         1 OVL       0.509000
     84 H34         13.4490    11.1140     8.0380 ho         1 OVL       0.507000
     85 H35         16.2540    12.0730     8.1500 ho         1 OVL       0.511000
     86 H36         20.3130     7.3540    16.7830 ho         1 OVL       0.522000
     87 H37         19.8110    10.3430    16.1860 ho         1 OVL       0.514000
@<TRIPOS>BOND
     1     1    13 1   
     2     1    14 3   
     3     2     5 1   
     4     2    34 1   
     5     2    52 1   
     6     2    53 1   
     7     3    16 1   
     8     3    34 1   
     9     3    54 1   
    10     3    55 1   
    11     4    17 1   
    12     4    18 1   
    13     4    49 1   
    14     4    56 1   
    15     5    30 1   
    16     5    44 2   
    17     6     7 1   
    18     6    30 1   
    19     6    57 1   
    20     6    58 1   
    21     7     8 1   
    22     7    59 1   
    23     7    60 1   
    24     8    31 1   
    25     8    61 1   
    26     8    62 1   
    27     9    31 1   
    28     9    32 1   
    29     9    45 2   
    30    10    11 1   
    31    10    32 1   
    32    10    63 1   
    33    10    64 1   
    34    11    29 1   
    35    11    46 1   
    36    11    65 1   
    37    12    28 1   
    38    12    33 1   
    39    12    46 1   
    40    12    66 1   
    41    13    33 1   
    42    13    40 2   
    43    14    15 1   
    44    15    34 1   
    45    15    67 1   
    46    15    68 1   
    47    16    18 1   
    48    16    47 1   
    49    16    69 1   
    50    17    35 1   
    51    17    47 1   
    52    17    70 1   
    53    18    48 1   
    54    18    71 1   
    55    19    35 1   
    56    19    36 2   
    57    19    72 1   
    58    20    21 ar  
    59    20    23 ar  
    60    20    36 1   
    61    21    35 1   
    62    21    37 ar  
    63    22    37 ar  
    64    22    38 ar  
    65    22    73 1   
    66    23    38 ar  
    67    23    39 1   
    68    24    25 ar  
    69    24    27 ar  
    70    24    40 1   
    71    25    33 1   
    72    25    41 ar  
    73    26    41 ar  
    74    26    42 ar  
    75    26    74 1   
    76    27    42 ar  
    77    27    43 1   
    78    28    29 1   
    79    28    51 1   
    80    28    75 1   
    81    29    50 1   
    82    29    76 1   
    83    30    77 1   
    84    31    78 1   
    85    32    79 1   
    86    39    80 1   
    87    39    81 1   
    88    43    82 1   
    89    43    83 1   
    90    48    84 1   
    91    49    85 1   
    92    50    86 1   
    93    51    87 1   
@<TRIPOS>SUBSTRUCTURE
     1 OVL         1 TEMP              0 ****  ****    0 ROOT
