@<TRIPOS>MOLECULE
OVL
   87    93     1     0     0
SMALL
abcg2


@<TRIPOS>ATOM
      1 C17         17.5090    10.3820    12.8570 cg         1 OVL      -0.121200
      2 C21         13.1330     8.3930    12.3820 c3         1 OVL       0.073800
      3 C22         14.2330     9.5040    10.5690 c3         1 OVL       0.164800
      4 C26         16.7410     9.9300     7.8390 c5         1 OVL       0.140300
      5 C02         12.8660     6.9910    11.8520 c          1 OVL       0.593100
      6 C04         13.8520     4.9880    10.8580 c3         1 OVL       0.110000
      7 C05         15.0740     4.6040    10.0350 c3         1 OVL      -0.122400
      8 C06         16.3380     4.2930    10.8300 c3         1 OVL       0.115000
      9 C08         16.6710     5.6320    12.8790 c          1 OVL       0.662100
     10 C11         16.9680     7.3090    14.6680 c3         1 OVL       0.109000
     11 C12         18.3550     7.4880    15.2810 c5         1 OVL       0.142300
     12 C14         19.6550     9.3640    14.8340 c5         1 OVL       0.316300
     13 C16         18.8840    10.7060    12.8040 cc         1 OVL       0.466700
     14 C18         16.3230    10.1740    12.8200 c1         1 OVL      -0.096100
     15 C19         14.8780     9.9740    12.8660 c3         1 OVL       0.255900
     16 C23         15.5430     9.7910     9.8690 c5         1 OVL       0.122300
     17 C25         17.0660     8.6110     8.5680 c5         1 OVL       0.266300
     18 C27         15.3740    10.2760     8.4260 c5         1 OVL       0.146300
     19 C31         15.7620     7.1600     6.9310 cc         1 OVL       0.402700
     20 C33         16.9290     5.4020     6.9610 ca         1 OVL      -0.106600
     21 C34         17.5550     6.2860     7.8230 ca         1 OVL       0.130500
     22 C36         19.1300     4.8400     8.3190 ca         1 OVL       0.189900
     23 C38         17.5290     4.1350     6.8230 ca         1 OVL       0.453900
     24 C41         20.7310    11.5330    12.1860 ca         1 OVL      -0.103600
     25 C42         21.0090    10.8070    13.3340 ca         1 OVL       0.150500
     26 C44         23.1430    11.3140    13.2450 ca         1 OVL       0.190900
     27 C46         21.8220    12.1840    11.5750 ca         1 OVL       0.454900
     28 C48         18.6320     9.7580    15.8970 c5         1 OVL       0.081300
     29 C49         18.3310     8.3840    16.5140 c5         1 OVL       0.114300
     30 N03         13.9230     6.3490    11.3510 ns         1 OVL      -0.486900
     31 N07         16.8820     5.4190    11.5500 ns         1 OVL      -0.527900
     32 N10         17.0220     6.8750    13.3020 ns         1 OVL      -0.519900
     33 N15         19.8130    10.2830    13.7340 na         1 OVL      -0.268300
     34 N20         14.3760     8.9840    11.9230 n3         1 OVL      -0.720600
     35 N30         16.7980     7.4230     7.7900 na         1 OVL      -0.303300
     36 N32         15.8080     5.9700     6.4140 nd         1 OVL      -0.544100
     37 N35         18.6560     6.0560     8.5330 nb         1 OVL      -0.230000
     38 N37         18.6420     3.8910     7.5250 nb         1 OVL      -0.300000
     39 N39         17.0370     3.1850     6.0290 nv         1 OVL      -1.060900
     40 N40         19.4080    11.4590    11.8710 nd         1 OVL      -0.522100
     41 N43         22.2000    10.6640    13.9060 nb         1 OVL      -0.215000
     42 N45         23.0250    12.0490    12.1430 nb         1 OVL      -0.303000
     43 N47         21.6960    12.9160    10.4700 nv         1 OVL      -1.063900
     44 O01         11.7480     6.5000    11.9480 o          1 OVL      -0.619100
     45 O09         16.2040     4.7800    13.6280 o          1 OVL      -0.652100
     46 O13         19.2290     8.1270    14.3420 os         1 OVL      -0.448000
     47 O24         16.3010     8.5950     9.7490 os         1 OVL      -0.441000
     48 O28         15.0830    11.6320     8.2900 oh         1 OVL      -0.675000
     49 O29         17.6390    10.9340     8.2200 oh         1 OVL      -0.676000
     50 O50         19.3550     7.9890    17.3880 oh         1 OVL      -0.702000
     51 O51         19.1880    10.6880    16.7780 oh         1 OVL      -0.695000
     52 H1          12.2520     9.0110    12.1590 h1         1 OVL       0.064700
     53 H2          13.1660     8.2900    13.4690 h1         1 OVL       0.064700
     54 H3          13.6320    10.4280    10.5630 h1         1 OVL       0.045200
     55 H4          13.6850     8.7690     9.9740 h1         1 OVL       0.045200
     56 H5          16.7170     9.7970     6.7520 h1         1 OVL       0.066700
     57 H6          12.9620     4.8910    10.2340 h1         1 OVL       0.054200
     58 H7          13.7290     4.2880    11.6900 h1         1 OVL       0.054200
     59 H8          15.2690     5.3890     9.2990 hc         1 OVL       0.051700
     60 H9          14.8210     3.7090     9.4630 hc         1 OVL       0.051700
     61 H10         16.1400     3.4920    11.5410 h1         1 OVL       0.059700
     62 H11         17.1000     3.9160    10.1440 h1         1 OVL       0.059700
     63 H12         16.3990     8.2400    14.7280 h1         1 OVL       0.054700
     64 H13         16.4200     6.5750    15.2570 h1         1 OVL       0.054700
     65 H14         18.7730     6.5050    15.5190 h1         1 OVL       0.105700
     66 H15         20.6480     9.2960    15.2920 h2         1 OVL       0.121700
     67 H16         14.3910    10.9530    12.7400 h1         1 OVL       0.055200
     68 H17         14.6400     9.6470    13.8800 h1         1 OVL       0.055200
     69 H18         16.1170    10.5490    10.4130 h1         1 OVL       0.094700
     70 H19         18.1310     8.5650     8.8110 h2         1 OVL       0.113700
     71 H20         14.6130     9.6550     7.9330 h1         1 OVL       0.037700
     72 H21         15.0000     7.8920     6.7130 h5         1 OVL       0.063800
     73 H22         20.0320     4.5760     8.8610 h5         1 OVL       0.053100
     74 H23         24.1450    11.2420    13.6520 h5         1 OVL       0.049100
     75 H24         17.7230    10.1420    15.4210 h1         1 OVL       0.057700
     76 H25         17.3490     8.3680    17.0060 h1         1 OVL       0.054700
     77 H26         14.7950     6.8570    11.3190 hn         1 OVL       0.343500
     78 H27         17.3090     6.1470    10.9970 hn         1 OVL       0.320500
     79 H28         17.3350     7.5530    12.6260 hn         1 OVL       0.326500
     80 H30         17.4860     2.2870     5.9740 hn         1 OVL       0.510000
     81 H31         16.1910     3.3290     5.5060 hn         1 OVL       0.510000
     82 H32         22.5000    13.3650    10.0640 hn         1 OVL       0.509000
     83 H33         20.8050    13.0330    10.0200 hn         1 OVL       0.509000
     84 H34         14.1400    11.7580     8.4310 ho         1 OVL       0.507000
     85 H35         18.4960    10.7520     7.8210 ho         1 OVL       0.511000
     86 H36         19.5320     8.7210    17.9910 ho         1 OVL       0.522000
     87 H37         18.4780    11.1740    17.2090 ho         1 OVL       0.514000
@<TRIPOS>BOND
     1     1    13 1   
     2     1    14 3   
     3     2     5 1   
     4     2    34 1   
     5     2    52 1   
     6     2    53 1   
     7     3    16 1   
     8     3    34 1   
     9     3    54 1   
    10     3    55 1   
    11     4    17 1   
    12     4    18 1   
    13     4    49 1   
    14     4    56 1   
    15     5    30 1   
    16     5    44 2   
    17     6     7 1   
    18     6    30 1   
    19     6    57 1   
    20     6    58 1   
    21     7     8 1   
    22     7    59 1   
    23     7    60 1   
    24     8    31 1   
    25     8    61 1   
    26     8    62 1   
    27     9    31 1   
    28     9    32 1   
    29     9    45 2   
    30    10    11 1   
    31    10    32 1   
    32    10    63 1   
    33    10    64 1   
    34    11    29 1   
    35    11    46 1   
    36    11    65 1   
    37    12    28 1   
    38    12    33 1   
    39    12    46 1   
    40    12    66 1   
    41    13    33 1   
    42    13    40 2   
    43    14    15 1   
    44    15    34 1   
    45    15    67 1   
    46    15    68 1   
    47    16    18 1   
    48    16    47 1   
    49    16    69 1   
    50    17    35 1   
    51    17    47 1   
    52    17    70 1   
    53    18    48 1   
    54    18    71 1   
    55    19    35 1   
    56    19    36 2   
    57    19    72 1   
    58    20    21 ar  
    59    20    23 ar  
    60    20    36 1   
    61    21    35 1   
    62    21    37 ar  
    63    22    37 ar  
    64    22    38 ar  
    65    22    73 1   
    66    23    38 ar  
    67    23    39 1   
    68    24    25 ar  
    69    24    27 ar  
    70    24    40 1   
    71    25    33 1   
    72    25    41 ar  
    73    26    41 ar  
    74    26    42 ar  
    75    26    74 1   
    76    27    42 ar  
    77    27    43 1   
    78    28    29 1   
    79    28    51 1   
    80    28    75 1   
    81    29    50 1   
    82    29    76 1   
    83    30    77 1   
    84    31    78 1   
    85    32    79 1   
    86    39    80 1   
    87    39    81 1   
    88    43    82 1   
    89    43    83 1   
    90    48    84 1   
    91    49    85 1   
    92    50    86 1   
    93    51    87 1   
@<TRIPOS>SUBSTRUCTURE
     1 OVL         1 TEMP              0 ****  ****    0 ROOT
