@<TRIPOS>MOLECULE
OVM
   18    18     1     0     0
SMALL
bcc


@<TRIPOS>ATOM
      1 C02         -2.3630    -0.4410     0.0440 c          1 OVM       0.923200
      2 C04         -0.9560     0.1490     0.0290 ca         1 OVM      -0.106600
      3 C05         -0.7600     1.5310     0.0130 ca         1 OVM      -0.133000
      4 C06          0.5230     2.0470     0.0000 ca         1 OVM      -0.136000
      5 C07          1.6370     1.2120     0.0030 ca         1 OVM      -0.240000
      6 C08          1.4460    -0.1680     0.0190 ca         1 OVM       0.092100
      7 C10          3.7790    -0.6010     0.0150 c3         1 OVM       0.135700
      8 C11          0.1510    -0.6870     0.0330 ca         1 OVM      -0.133000
      9 O01         -3.3060     0.3730     0.0250 o          1 OVM      -0.824800
     10 O03         -2.4490    -1.6830     0.0740 o          1 OVM      -0.824800
     11 O09          2.4490    -1.0730     0.0250 os         1 OVM      -0.327900
     12 H1          -1.6140     2.1950     0.0100 ha         1 OVM       0.145000
     13 H2           0.6750     3.1190    -0.0120 ha         1 OVM       0.099000
     14 H3           2.6260     1.6480    -0.0080 ha         1 OVM       0.104000
     15 H4           4.0010    -0.0170    -0.8830 h1         1 OVM       0.022700
     16 H5           4.0050     0.0100     0.8930 h1         1 OVM       0.022700
     17 H6           4.4210    -1.4790     0.0270 h1         1 OVM       0.022700
     18 H7           0.0130    -1.7610     0.0460 ha         1 OVM       0.158000
@<TRIPOS>BOND
     1     1     2 1   
     2     1     9 1   
     3     1    10 1   
     4     2     3 ar  
     5     2     8 ar  
     6     3     4 ar  
     7     3    12 1   
     8     4     5 ar  
     9     4    13 1   
    10     5     6 ar  
    11     5    14 1   
    12     6     8 ar  
    13     6    11 1   
    14     7    11 1   
    15     7    15 1   
    16     7    16 1   
    17     7    17 1   
    18     8    18 1   
@<TRIPOS>SUBSTRUCTURE
     1 OVM         1 TEMP              0 ****  ****    0 ROOT
