@<TRIPOS>MOLECULE
OVM
   18    18     1     0     0
SMALL
No Charge or Current Charge


@<TRIPOS>ATOM
      1 C02         -2.4100    -0.4340     0.0440 c          1 OVM       0.712600
      2 C04         -1.0010     0.1460     0.0300 ca         1 OVM      -0.106600
      3 C05         -0.7910     1.5450     0.0110 ca         1 OVM      -0.115000
      4 C06          0.5100     2.0760    -0.0020 ca         1 OVM      -0.118000
      5 C07          1.6230     1.2220     0.0030 ca         1 OVM      -0.222000
      6 C08          1.4350    -0.1760     0.0220 ca         1 OVM       0.092100
      7 C10          3.8620    -0.6290     0.0150 c3         1 OVM       0.158900
      8 C11          0.1320    -0.7030     0.0350 ca         1 OVM      -0.115000
      9 O01         -3.3620     0.3350     0.0390 o          1 OVM      -0.719500
     10 O03         -2.5430    -1.6500     0.0600 o          1 OVM      -0.719500
     11 O09          2.4910    -1.0650     0.0280 os         1 OVM      -0.351100
     12 H1          -1.6380     2.2270     0.0070 ha         1 OVM       0.127000
     13 H2           0.6540     3.1540    -0.0170 ha         1 OVM       0.081000
     14 H3           2.6170     1.6600    -0.0070 ha         1 OVM       0.086000
     15 H4           4.0740    -0.0400    -0.8860 h1         1 OVM       0.022700
     16 H5           4.0830    -0.0170     0.8990 h1         1 OVM       0.022700
     17 H6           4.5350    -1.4950     0.0230 h1         1 OVM       0.022700
     18 H7           0.0060    -1.7820     0.0490 ha         1 OVM       0.140000
@<TRIPOS>BOND
     1     1     2 1   
     2     1     9 1   
     3     1    10 1   
     4     2     3 ar  
     5     2     8 ar  
     6     3     4 ar  
     7     3    12 1   
     8     4     5 ar  
     9     4    13 1   
    10     5     6 ar  
    11     5    14 1   
    12     6     8 ar  
    13     6    11 1   
    14     7    11 1   
    15     7    15 1   
    16     7    16 1   
    17     7    17 1   
    18     8    18 1   
@<TRIPOS>SUBSTRUCTURE
     1 OVM         1 TEMP              0 ****  ****    0 ROOT
