@<TRIPOS>MOLECULE
OVN
   74    75     1     0     0
SMALL
No Charge or Current Charge


@<TRIPOS>ATOM
      1 C1          -6.3750    -5.0220   -28.2960 c6         1 OVN       0.156600
      2 C3          -6.0230    -2.5190   -28.7330 c6         1 OVN       0.138300
      3 C4          -5.2950    -2.9160   -30.0610 c6         1 OVN       0.124300
      4 C6          -3.4260    -4.5930   -29.2180 c3         1 OVN       0.175600
      5 C8          -8.5970    -2.1570   -26.6770 c3         1 OVN      -0.091400
      6 C13        -11.1700    -5.0040   -24.3830 cc         1 OVN       0.203300
      7 C14         -9.9990    -4.3210   -24.2860 cd         1 OVN      -0.219000
      8 C15        -11.5160    -6.3340   -23.7700 c3         1 OVN      -0.091700
      9 C16        -11.3210    -7.5140   -24.7500 c3         1 OVN      -0.073400
     10 C17        -11.7390    -8.8930   -24.1840 c3         1 OVN      -0.081400
     11 C18        -10.8790    -9.3780   -22.9970 c3         1 OVN       0.161600
     12 N            0.0870    -0.2920   -28.7810 n8         1 OVN      -1.042200
     13 CA          -1.4060    -0.1580   -28.5720 c3         1 OVN       0.113500
     14 C           -2.1090    -1.2670   -27.7060 c          1 OVN       0.587100
     15 O           -3.0960    -1.0250   -27.0290 o          1 OVN      -0.546100
     16 CB          -2.1400    -0.0160   -29.9360 c3         1 OVN      -0.068400
     17 CG          -1.7450     1.2120   -30.8070 c3         1 OVN      -0.052700
     18 CD1         -2.4370     1.1490   -32.1890 c3         1 OVN      -0.090600
     19 CD2         -2.0420     2.5630   -30.1110 c3         1 OVN      -0.090600
     20 C2          -7.0440    -3.6170   -28.2690 c6         1 OVN      -0.084700
     21 C5          -4.7570    -4.3830   -30.0230 c6         1 OVN       0.176300
     22 C9          -9.2910    -2.0820   -25.2960 c3         1 OVN       0.080600
     23 N10        -10.2260    -3.1890   -25.0340 na         1 OVN       0.126800
     24 N11        -11.4980    -3.2030   -25.5470 nd         1 OVN      -0.205800
     25 N12        -12.0660    -4.3120   -25.1460 nc         1 OVN      -0.362000
     26 N3S         -1.5260    -2.4980   -27.7390 ns         1 OVN      -0.628300
     27 O19        -11.2960   -10.6890   -22.6050 oh         1 OVN      -0.663000
     28 O1S         -1.1870    -4.9830   -27.4620 o          1 OVN      -0.534000
     29 O2S         -2.4050    -3.6560   -25.6480 o          1 OVN      -0.534000
     30 O3          -6.6950    -1.2660   -28.9710 oh         1 OVN      -0.670000
     31 O4          -6.2370    -2.7300   -31.1310 oh         1 OVN      -0.714000
     32 O5          -5.7980    -5.3020   -29.5900 os         1 OVN      -0.429000
     33 O6          -3.4930    -4.0150   -27.9020 os         1 OVN      -0.572700
     34 S           -2.0900    -3.9020   -27.0580 s6         1 OVN       1.439500
     35 H1          -7.1320    -5.7910   -28.0870 h1         1 OVN       0.056700
     36 H2          -5.6090    -5.1070   -27.5140 h1         1 OVN       0.056700
     37 H3          -5.2730    -2.3920   -27.9400 h1         1 OVN       0.068700
     38 H4          -4.4420    -2.2360   -30.2080 h1         1 OVN       0.025700
     39 H5          -3.2140    -5.6700   -29.1640 h1         1 OVN       0.059200
     40 H6          -2.6220    -4.1260   -29.8020 h1         1 OVN       0.059200
     41 H7          -8.2200    -4.2740   -26.5640 hc         1 OVN       0.043700
     42 H8          -6.8440    -3.2950   -26.1090 hc         1 OVN       0.043700
     43 H9          -8.0240    -1.2320   -26.8020 hc         1 OVN       0.069200
     44 H10         -9.3600    -2.1690   -27.4650 hc         1 OVN       0.069200
     45 H11         -9.0700    -4.5440   -23.7780 h4         1 OVN       0.165000
     46 H12        -10.8950    -6.4870   -22.8800 hc         1 OVN       0.050700
     47 H13        -12.5570    -6.3180   -23.4240 hc         1 OVN       0.050700
     48 H14        -11.9090    -7.3200   -25.6560 hc         1 OVN       0.047700
     49 H15        -10.2700    -7.5540   -25.0640 hc         1 OVN       0.047700
     50 H16        -12.7910    -8.8550   -23.8780 hc         1 OVN       0.054700
     51 H17        -11.6720    -9.6330   -24.9910 hc         1 OVN       0.054700
     52 H18         -9.8220    -9.3910   -23.2960 h1         1 OVN       0.014200
     53 H19        -10.9850    -8.6820   -22.1550 h1         1 OVN       0.014200
     54 H21          0.3030    -1.0990   -29.3790 hn         1 OVN       0.424000
     55 H23         -1.5740     0.7640   -27.9990 h1         1 OVN       0.098700
     56 H24         -3.2200     0.0310   -29.7470 hc         1 OVN       0.045200
     57 H25         -1.9750    -0.9340   -30.5150 hc         1 OVN       0.045200
     58 H26         -0.6640     1.1680   -30.9910 hc         1 OVN       0.058700
     59 H27         -2.1180     1.9860   -32.8210 hc         1 OVN       0.036033
     60 H28         -2.1810     0.2180   -32.7090 hc         1 OVN       0.036033
     61 H29         -3.5280     1.1950   -32.0830 hc         1 OVN       0.036033
     62 H30         -1.4470     2.6780   -29.1980 hc         1 OVN       0.036033
     63 H31         -1.7930     3.4010   -30.7730 hc         1 OVN       0.036033
     64 H32         -3.1030     2.6420   -29.8450 hc         1 OVN       0.036033
     65 H33         -7.8870    -3.6400   -28.9740 hc         1 OVN       0.080700
     66 H34         -4.5090    -4.6570   -31.0580 h1         1 OVN       0.093700
     67 H35         -8.5320    -2.0710   -24.5050 h1         1 OVN       0.067200
     68 H36         -9.8510    -1.1410   -25.2280 h1         1 OVN       0.067200
     69 H37         -0.7240    -2.6680   -28.3170 hn         1 OVN       0.342500
     70 H38        -10.7230   -10.9580   -21.8520 ho         1 OVN       0.441000
     71 H39         -6.1840    -0.5730   -28.4960 ho         1 OVN       0.453000
     72 H40         -6.8410    -2.0420   -30.7520 ho         1 OVN       0.523000
     73 C7          -7.6540    -3.3770   -26.8450 c3         1 OVN      -0.067400
     74 H20          0.5530    -0.5010   -27.8870 hn         1 OVN       0.424000
@<TRIPOS>BOND
     1     1    20 1   
     2     1    32 1   
     3     1    35 1   
     4     1    36 1   
     5     2     3 1   
     6     2    20 1   
     7     2    30 1   
     8     2    37 1   
     9     3    21 1   
    10     3    31 1   
    11     3    38 1   
    12     4    21 1   
    13     4    33 1   
    14     4    39 1   
    15     4    40 1   
    16     5    22 1   
    17     5    43 1   
    18     5    44 1   
    19     5    73 1   
    20     6     7 2   
    21     6     8 1   
    22     6    25 1   
    23     7    23 1   
    24     7    45 1   
    25     8     9 1   
    26     8    46 1   
    27     8    47 1   
    28     9    10 1   
    29     9    48 1   
    30     9    49 1   
    31    10    11 1   
    32    10    50 1   
    33    10    51 1   
    34    11    27 1   
    35    11    52 1   
    36    11    53 1   
    37    12    13 1   
    38    12    54 1   
    39    12    74 1   
    40    13    14 1   
    41    13    16 1   
    42    13    55 1   
    43    14    15 2   
    44    14    26 1   
    45    16    17 1   
    46    16    56 1   
    47    16    57 1   
    48    17    18 1   
    49    17    19 1   
    50    17    58 1   
    51    18    59 1   
    52    18    60 1   
    53    18    61 1   
    54    19    62 1   
    55    19    63 1   
    56    19    64 1   
    57    20    65 1   
    58    20    73 1   
    59    21    32 1   
    60    21    66 1   
    61    22    23 1   
    62    22    67 1   
    63    22    68 1   
    64    23    24 1   
    65    24    25 2   
    66    26    34 1   
    67    26    69 1   
    68    27    70 1   
    69    28    34 2   
    70    29    34 2   
    71    30    71 1   
    72    31    72 1   
    73    33    34 1   
    74    41    73 1   
    75    42    73 1   
@<TRIPOS>SUBSTRUCTURE
     1 OVN         1 TEMP              0 ****  ****    0 ROOT
