@<TRIPOS>MOLECULE
OVN
   74    75     1     0     0
SMALL
bcc


@<TRIPOS>ATOM
      1 C1          -6.8240    -4.6990   -28.2740 c6         1 OVN       0.133400
      2 C3          -6.2540    -2.3010   -28.3940 c6         1 OVN       0.115100
      3 C4          -5.4650    -2.6200   -29.6730 c6         1 OVN       0.101100
      4 C6          -3.7540    -4.4210   -29.0500 c3         1 OVN       0.152400
      5 C8          -9.2040    -2.0420   -26.8460 c3         1 OVN      -0.091400
      6 C13        -11.2260    -5.1840   -24.5510 cc         1 OVN       0.268600
      7 C14        -10.2810    -4.2030   -24.3830 cd         1 OVN      -0.251600
      8 C15        -11.3080    -6.5290   -23.9160 c3         1 OVN      -0.091700
      9 C16        -10.8760    -7.6450   -24.8720 c3         1 OVN      -0.073400
     10 C17        -10.9810    -9.0460   -24.2770 c3         1 OVN      -0.081400
     11 C18        -10.0320    -9.2770   -23.1170 c3         1 OVN       0.138400
     12 N            0.0180    -0.8040   -28.8910 n8         1 OVN      -0.931800
     13 CA          -1.3290    -0.3940   -28.6070 c3         1 OVN       0.113500
     14 C           -2.1810    -1.3270   -27.7440 c          1 OVN       0.654100
     15 O           -3.2300    -0.9890   -27.2480 o          1 OVN      -0.546100
     16 CB          -2.1140    -0.1580   -29.9050 c3         1 OVN      -0.068400
     17 CG          -1.4440     0.8050   -30.8870 c3         1 OVN      -0.052700
     18 CD1         -2.3230     0.9530   -32.1260 c3         1 OVN      -0.090600
     19 CD2         -1.1650     2.1630   -30.2550 c3         1 OVN      -0.090600
     20 C2          -7.4000    -3.2860   -28.2060 c6         1 OVN      -0.084700
     21 C5          -5.0530    -4.0900   -29.7650 c6         1 OVN       0.153100
     22 C9          -9.9690    -1.9830   -25.5310 c3         1 OVN       0.051300
     23 N10        -10.6560    -3.2270   -25.2280 na         1 OVN       0.105400
     24 N11        -11.7490    -3.5690   -25.8810 nd         1 OVN      -0.205800
     25 N12        -12.1030    -4.7440   -25.4790 nc         1 OVN      -0.362000
     26 N3S         -1.6890    -2.6090   -27.6230 ns         1 OVN      -0.695300
     27 O19        -10.1210   -10.6300   -22.7220 oh         1 OVN      -0.600800
     28 O1S         -1.6200    -5.0020   -27.0350 o          1 OVN      -0.604800
     29 O2S         -2.8870    -3.4490   -25.5290 o          1 OVN      -0.604800
     30 O3          -6.7590    -0.9820   -28.4830 oh         1 OVN      -0.607800
     31 O4          -6.2460    -2.3430   -30.8110 oh         1 OVN      -0.591800
     32 O5          -6.1120    -4.9620   -29.4650 os         1 OVN      -0.382600
     33 O6          -3.8080    -4.0030   -27.6680 os         1 OVN      -0.549500
     34 S           -2.4670    -3.8520   -26.8400 s6         1 OVN       1.581100
     35 H1          -7.6410    -5.4230   -28.2490 h1         1 OVN       0.056700
     36 H2          -6.2060    -4.8870   -27.3870 h1         1 OVN       0.056700
     37 H3          -5.5860    -2.3890   -27.5320 h1         1 OVN       0.068700
     38 H4          -4.5520    -2.0010   -29.6790 h1         1 OVN       0.025700
     39 H5          -3.5620    -5.4930   -29.0930 h1         1 OVN       0.059200
     40 H6          -2.9410    -3.9000   -29.5640 h1         1 OVN       0.059200
     41 H7          -8.6210    -4.0910   -26.6530 hc         1 OVN       0.043700
     42 H8          -7.4160    -2.9700   -26.0660 hc         1 OVN       0.043700
     43 H9          -8.7550    -1.0620   -27.0000 hc         1 OVN       0.069200
     44 H10         -9.9100    -2.1950   -27.6670 hc         1 OVN       0.069200
     45 H11         -9.4130    -4.1320   -23.7500 h4         1 OVN       0.183000
     46 H12        -10.6800    -6.5270   -23.0230 hc         1 OVN       0.050700
     47 H13        -12.3310    -6.7200   -23.5780 hc         1 OVN       0.050700
     48 H14        -11.4980    -7.5960   -25.7690 hc         1 OVN       0.047700
     49 H15         -9.8490    -7.4590   -25.2010 hc         1 OVN       0.047700
     50 H16        -12.0100    -9.2330   -23.9530 hc         1 OVN       0.054700
     51 H17        -10.7610    -9.7760   -25.0610 hc         1 OVN       0.054700
     52 H18         -9.0110    -9.0170   -23.4320 h1         1 OVN       0.014200
     53 H19        -10.2830    -8.6090   -22.2830 h1         1 OVN       0.014200
     54 H21          0.0850    -1.5730   -29.5430 hn         1 OVN       0.368800
     55 H23         -1.2930     0.5450   -28.0460 h1         1 OVN       0.098700
     56 H24         -3.1060     0.2240   -29.6490 hc         1 OVN       0.045200
     57 H25         -2.2700    -1.1210   -30.4060 hc         1 OVN       0.045200
     58 H26         -0.4900     0.3690   -31.1940 hc         1 OVN       0.058700
     59 H27         -1.8430     1.5850   -32.8750 hc         1 OVN       0.036033
     60 H28         -2.5290    -0.0140   -32.5890 hc         1 OVN       0.036033
     61 H29         -3.2830     1.4090   -31.8730 hc         1 OVN       0.036033
     62 H30         -0.4570     2.0890   -29.4280 hc         1 OVN       0.036033
     63 H31         -0.7380     2.8500   -30.9870 hc         1 OVN       0.036033
     64 H32         -2.0830     2.6150   -29.8720 hc         1 OVN       0.036033
     65 H33         -8.1180    -3.1680   -29.0260 hc         1 OVN       0.080700
     66 H34         -4.8070    -4.2860   -30.8150 h1         1 OVN       0.093700
     67 H35         -9.2950    -1.7820   -24.6980 h1         1 OVN       0.067200
     68 H36        -10.7120    -1.1870   -25.5530 h1         1 OVN       0.067200
     69 H37         -0.7780    -2.8290   -28.0090 hn         1 OVN       0.342500
     70 H38         -9.5490   -10.7580   -21.9600 ho         1 OVN       0.402000
     71 H39         -6.0330    -0.3690   -28.3230 ho         1 OVN       0.414000
     72 H40         -6.6950    -1.5050   -30.6480 ho         1 OVN       0.424000
     73 C7          -8.1400    -3.1320   -26.8730 c3         1 OVN      -0.067400
     74 H20          0.5700    -0.9990   -28.0680 hn         1 OVN       0.368800
@<TRIPOS>BOND
     1     1    20 1   
     2     1    32 1   
     3     1    35 1   
     4     1    36 1   
     5     2     3 1   
     6     2    20 1   
     7     2    30 1   
     8     2    37 1   
     9     3    21 1   
    10     3    31 1   
    11     3    38 1   
    12     4    21 1   
    13     4    33 1   
    14     4    39 1   
    15     4    40 1   
    16     5    22 1   
    17     5    43 1   
    18     5    44 1   
    19     5    73 1   
    20     6     7 2   
    21     6     8 1   
    22     6    25 1   
    23     7    23 1   
    24     7    45 1   
    25     8     9 1   
    26     8    46 1   
    27     8    47 1   
    28     9    10 1   
    29     9    48 1   
    30     9    49 1   
    31    10    11 1   
    32    10    50 1   
    33    10    51 1   
    34    11    27 1   
    35    11    52 1   
    36    11    53 1   
    37    12    13 1   
    38    12    54 1   
    39    12    74 1   
    40    13    14 1   
    41    13    16 1   
    42    13    55 1   
    43    14    15 2   
    44    14    26 1   
    45    16    17 1   
    46    16    56 1   
    47    16    57 1   
    48    17    18 1   
    49    17    19 1   
    50    17    58 1   
    51    18    59 1   
    52    18    60 1   
    53    18    61 1   
    54    19    62 1   
    55    19    63 1   
    56    19    64 1   
    57    20    65 1   
    58    20    73 1   
    59    21    32 1   
    60    21    66 1   
    61    22    23 1   
    62    22    67 1   
    63    22    68 1   
    64    23    24 1   
    65    24    25 2   
    66    26    34 1   
    67    26    69 1   
    68    27    70 1   
    69    28    34 2   
    70    29    34 2   
    71    30    71 1   
    72    31    72 1   
    73    33    34 1   
    74    41    73 1   
    75    42    73 1   
@<TRIPOS>SUBSTRUCTURE
     1 OVN         1 TEMP              0 ****  ****    0 ROOT
