@<TRIPOS>MOLECULE
OVO
   33    35     1     0     0
SMALL
No Charge or Current Charge


@<TRIPOS>ATOM
      1 N1         -22.5500     3.8020    -7.8160 nv         1 OVO      -1.034900
      2 C1         -22.5870     3.5620    -6.5130 cc         1 OVO       0.679900
      3 N2         -23.3260     2.6300    -5.9910 nd         1 OVO      -0.746000
      4 C2         -23.0620     2.7700    -4.6400 cd         1 OVO       0.333500
      5 C3         -23.6720     1.9160    -3.5970 ca         1 OVO      -0.117500
      6 C4         -23.3620     2.1140    -2.2330 ca         1 OVO      -0.086000
      7 C5         -23.9420     1.3040    -1.2410 ca         1 OVO      -0.110000
      8 C6         -24.8400     0.2810    -1.5910 ca         1 OVO      -0.071300
      9 C7         -25.4720    -0.5920    -0.5140 c3         1 OVO       0.015200
     10 C8         -26.7700     0.0120     0.0050 ca         1 OVO      -0.078300
     11 C9         -27.9960    -0.2950    -0.6190 ca         1 OVO      -0.104500
     12 C10        -29.1940     0.2660    -0.1440 ca         1 OVO      -0.109500
     13 C11        -29.1740     1.1400     0.9570 ca         1 OVO      -0.111000
     14 C12        -27.9540     1.4520     1.5810 ca         1 OVO      -0.109500
     15 C13        -26.7560     0.8910     1.1060 ca         1 OVO      -0.104500
     16 C14        -25.1550     0.0780    -2.9470 ca         1 OVO      -0.110000
     17 C15        -24.5770     0.8870    -3.9400 ca         1 OVO      -0.086000
     18 C16        -22.1710     3.8040    -4.4610 cc         1 OVO       0.082900
     19 O1         -21.8590     4.3300    -5.6750 os         1 OVO      -0.300000
     20 H1         -23.3230     3.4140    -8.3430 hn         1 OVO       0.484000
     21 H2         -22.2350     4.7240    -8.0940 hn         1 OVO       0.484000
     22 H3         -22.6710     2.8970    -1.9300 ha         1 OVO       0.121500
     23 H4         -23.6920     1.4760    -0.1970 ha         1 OVO       0.113000
     24 H5         -25.6580    -1.5990    -0.9080 hc         1 OVO       0.054700
     25 H6         -24.7660    -0.7330     0.3140 hc         1 OVO       0.054700
     26 H7         -28.0200    -0.9690    -1.4730 ha         1 OVO       0.111500
     27 H8         -30.1370     0.0250    -0.6290 ha         1 OVO       0.111500
     28 H9         -30.1010     1.5750     1.3240 ha         1 OVO       0.112000
     29 H10        -27.9370     2.1300     2.4320 ha         1 OVO       0.111500
     30 H11        -25.8160     1.1400     1.5930 ha         1 OVO       0.111500
     31 H12        -25.8520    -0.7060    -3.2330 ha         1 OVO       0.113000
     32 H13        -24.8390     0.7090    -4.9810 ha         1 OVO       0.121500
     33 H14        -21.7130     4.2370    -3.5830 h4         1 OVO       0.064100
@<TRIPOS>BOND
     1     1     2 1   
     2     1    20 1   
     3     1    21 1   
     4     2     3 2   
     5     2    19 1   
     6     3     4 1   
     7     4     5 1   
     8     4    18 2   
     9     5     6 ar  
    10     5    17 ar  
    11     6     7 ar  
    12     6    22 1   
    13     7     8 ar  
    14     7    23 1   
    15     8     9 1   
    16     8    16 ar  
    17     9    10 1   
    18     9    24 1   
    19     9    25 1   
    20    10    11 ar  
    21    10    15 ar  
    22    11    12 ar  
    23    11    26 1   
    24    12    13 ar  
    25    12    27 1   
    26    13    14 ar  
    27    13    28 1   
    28    14    15 ar  
    29    14    29 1   
    30    15    30 1   
    31    16    17 ar  
    32    16    31 1   
    33    17    32 1   
    34    18    19 1   
    35    18    33 1   
@<TRIPOS>SUBSTRUCTURE
     1 OVO         1 TEMP              0 ****  ****    0 ROOT
