@<TRIPOS>MOLECULE
OVO
   33    35     1     0     0
SMALL
abcg2


@<TRIPOS>ATOM
      1 N1         -22.3660     3.6160    -7.9100 nv         1 OVO      -1.034900
      2 C1         -22.6230     3.4630    -6.5870 cc         1 OVO       0.679900
      3 N2         -23.2420     2.4920    -5.9870 nd         1 OVO      -0.746000
      4 C2         -23.1510     2.7980    -4.6200 cd         1 OVO       0.333500
      5 C3         -23.7340     1.9350    -3.5940 ca         1 OVO      -0.117500
      6 C4         -23.6650     2.2750    -2.2350 ca         1 OVO      -0.086000
      7 C5         -24.2190     1.4530    -1.2700 ca         1 OVO      -0.110000
      8 C6         -24.8610     0.2600    -1.6190 ca         1 OVO      -0.071300
      9 C7         -25.4930    -0.6110    -0.5570 c3         1 OVO       0.015200
     10 C8         -26.7420     0.0110     0.0300 ca         1 OVO      -0.078300
     11 C9         -27.8940     0.1510    -0.7480 ca         1 OVO      -0.104500
     12 C10        -29.0380     0.7390    -0.2240 ca         1 OVO      -0.109500
     13 C11        -29.0490     1.2010     1.0910 ca         1 OVO      -0.111000
     14 C12        -27.9080     1.0670     1.8730 ca         1 OVO      -0.109500
     15 C13        -26.7630     0.4750     1.3440 ca         1 OVO      -0.104500
     16 C14        -24.9270    -0.0780    -2.9680 ca         1 OVO      -0.110000
     17 C15        -24.3730     0.7440    -3.9430 ca         1 OVO      -0.086000
     18 C16        -22.4720     3.9610    -4.4820 cc         1 OVO       0.082900
     19 O1         -22.1230     4.4030    -5.7500 os         1 OVO      -0.300000
     20 H1         -22.9460     3.0670    -8.5270 hn         1 OVO       0.484000
     21 H2         -22.1920     4.5580    -8.2270 hn         1 OVO       0.484000
     22 H3         -23.1730     3.1910    -1.9310 ha         1 OVO       0.121500
     23 H4         -24.1570     1.7390    -0.2260 ha         1 OVO       0.113000
     24 H5         -25.7380    -1.5810    -0.9940 hc         1 OVO       0.054700
     25 H6         -24.7740    -0.7890     0.2460 hc         1 OVO       0.054700
     26 H7         -27.8910    -0.2020    -1.7720 ha         1 OVO       0.111500
     27 H8         -29.9240     0.8370    -0.8400 ha         1 OVO       0.111500
     28 H9         -29.9410     1.6600     1.5000 ha         1 OVO       0.112000
     29 H10        -27.9060     1.4210     2.8970 ha         1 OVO       0.111500
     30 H11        -25.8760     0.3730     1.9580 ha         1 OVO       0.111500
     31 H12        -25.4170    -0.9990    -3.2620 ha         1 OVO       0.113000
     32 H13        -24.4350     0.4630    -4.9860 ha         1 OVO       0.121500
     33 H14        -22.1660     4.5800    -3.6590 h4         1 OVO       0.064100
@<TRIPOS>BOND
     1     1     2 1   
     2     1    20 1   
     3     1    21 1   
     4     2     3 2   
     5     2    19 1   
     6     3     4 1   
     7     4     5 1   
     8     4    18 2   
     9     5     6 ar  
    10     5    17 ar  
    11     6     7 ar  
    12     6    22 1   
    13     7     8 ar  
    14     7    23 1   
    15     8     9 1   
    16     8    16 ar  
    17     9    10 1   
    18     9    24 1   
    19     9    25 1   
    20    10    11 ar  
    21    10    15 ar  
    22    11    12 ar  
    23    11    26 1   
    24    12    13 ar  
    25    12    27 1   
    26    13    14 ar  
    27    13    28 1   
    28    14    15 ar  
    29    14    29 1   
    30    15    30 1   
    31    16    17 ar  
    32    16    31 1   
    33    17    32 1   
    34    18    19 1   
    35    18    33 1   
@<TRIPOS>SUBSTRUCTURE
     1 OVO         1 TEMP              0 ****  ****    0 ROOT
