@<TRIPOS>MOLECULE
OVP
   18    18     1     0     0
SMALL
No Charge or Current Charge


@<TRIPOS>ATOM
      1 C01         -4.0290     0.1140    -0.0240 c3         1 OVP       0.025900
      2 C03         -1.1220     0.0160    -0.0130 ca         1 OVP      -0.114000
      3 C04         -1.1990     1.4230    -0.0220 ca         1 OVP      -0.146000
      4 C05         -0.0240     2.1900    -0.0230 ca         1 OVP      -0.139000
      5 C06          1.2330     1.5640    -0.0150 ca         1 OVP      -0.084000
      6 C07          1.3340     0.1530    -0.0060 ca         1 OVP      -0.127600
      7 C08          0.1400    -0.6070    -0.0050 ca         1 OVP      -0.070000
      8 C09          2.6920    -0.5310     0.0030 c          1 OVP       0.713600
      9 O10          2.7330    -1.7540     0.0100 o          1 OVP      -0.718500
     10 O11          3.6990     0.1640     0.0020 o          1 OVP      -0.718500
     11 S02         -2.5810    -1.0340    -0.0120 ss         1 OVP      -0.210000
     12 H1          -4.9570    -0.4700    -0.0230 h1         1 OVP       0.051367
     13 H2          -4.0060     0.7520     0.8690 h1         1 OVP       0.051367
     14 H3          -4.0000     0.7400    -0.9240 h1         1 OVP       0.051367
     15 H4          -2.1550     1.9370    -0.0290 ha         1 OVP       0.084000
     16 H5          -0.0870     3.2750    -0.0300 ha         1 OVP       0.084000
     17 H6           2.1300     2.1800    -0.0160 ha         1 OVP       0.128000
     18 H7           0.1890    -1.6940     0.0020 ha         1 OVP       0.139000
@<TRIPOS>BOND
     1     1    11 1   
     2     1    12 1   
     3     1    13 1   
     4     1    14 1   
     5     2     3 ar  
     6     2     7 ar  
     7     2    11 1   
     8     3     4 ar  
     9     3    15 1   
    10     4     5 ar  
    11     4    16 1   
    12     5     6 ar  
    13     5    17 1   
    14     6     7 ar  
    15     6     8 1   
    16     7    18 1   
    17     8     9 1   
    18     8    10 1   
@<TRIPOS>SUBSTRUCTURE
     1 OVP         1 TEMP              0 ****  ****    0 ROOT
