@<TRIPOS>MOLECULE
OVP
   18    18     1     0     0
SMALL
abcg2


@<TRIPOS>ATOM
      1 C01         -3.9380     0.1160    -0.0220 c3         1 OVP       0.025900
      2 C03         -1.1340     0.0430    -0.0120 ca         1 OVP      -0.114000
      3 C04         -1.2050     1.4330    -0.0240 ca         1 OVP      -0.146000
      4 C05         -0.0310     2.1770    -0.0260 ca         1 OVP      -0.139000
      5 C06          1.2060     1.5540    -0.0160 ca         1 OVP      -0.084000
      6 C07          1.2890     0.1620    -0.0060 ca         1 OVP      -0.127600
      7 C08          0.1150    -0.5800    -0.0050 ca         1 OVP      -0.070000
      8 C09          2.6440    -0.5390     0.0020 c          1 OVP       0.713600
      9 O10          2.6280    -1.7850    -0.0090 o          1 OVP      -0.718500
     10 O11          3.6480     0.1960     0.0210 o          1 OVP      -0.718500
     11 S02         -2.5410    -1.0200    -0.0060 ss         1 OVP      -0.210000
     12 H1          -4.8310    -0.5070    -0.0220 h1         1 OVP       0.051367
     13 H2          -3.9570     0.7470     0.8650 h1         1 OVP       0.051367
     14 H3          -3.9470     0.7320    -0.9190 h1         1 OVP       0.051367
     15 H4          -2.1550     1.9490    -0.0290 ha         1 OVP       0.084000
     16 H5          -0.0940     3.2580    -0.0350 ha         1 OVP       0.084000
     17 H6           2.1110     2.1450    -0.0160 ha         1 OVP       0.128000
     18 H7           0.1810    -1.6610     0.0020 ha         1 OVP       0.139000
@<TRIPOS>BOND
     1     1    11 1   
     2     1    12 1   
     3     1    13 1   
     4     1    14 1   
     5     2     3 ar  
     6     2     7 ar  
     7     2    11 1   
     8     3     4 ar  
     9     3    15 1   
    10     4     5 ar  
    11     4    16 1   
    12     5     6 ar  
    13     5    17 1   
    14     6     7 ar  
    15     6     8 1   
    16     7    18 1   
    17     8     9 1   
    18     8    10 1   
@<TRIPOS>SUBSTRUCTURE
     1 OVP         1 TEMP              0 ****  ****    0 ROOT
