@<TRIPOS>MOLECULE
OVQ
   70    72     1     0     0
SMALL
No Charge or Current Charge


@<TRIPOS>ATOM
      1 N            0.0850    -0.0400   -28.8180 n8         1 OVQ      -1.045200
      2 CA          -1.4040    -0.0010   -28.5540 c3         1 OVQ       0.114500
      3 C           -2.0230    -1.2200   -27.7760 c          1 OVQ       0.586100
      4 O           -2.9850    -1.0880   -27.0350 o          1 OVQ      -0.541100
      5 CB          -2.1920     0.2290   -29.8750 c3         1 OVQ      -0.067400
      6 CG          -1.8930     1.5540   -30.6350 c3         1 OVQ      -0.053700
      7 CD1         -2.2380     2.8140   -29.8030 c3         1 OVQ      -0.089100
      8 CD2         -2.6270     1.5830   -31.9950 c3         1 OVQ      -0.089100
      9 C1          -6.1940    -4.9040   -28.7280 c6         1 OVQ       0.161600
     10 C13        -10.9820    -4.8930   -24.8420 cc         1 OVQ       0.258500
     11 C14         -9.8100    -4.2120   -24.7370 cd         1 OVQ      -0.202000
     12 C15        -11.2140    -6.1880   -24.1940 ca         1 OVQ      -0.156500
     13 C16        -12.4800    -6.8050   -24.2960 ca         1 OVQ       0.364900
     14 C18        -11.8040    -8.6340   -23.0430 ca         1 OVQ       0.337900
     15 C19        -10.5140    -8.1030   -22.8900 ca         1 OVQ      -0.167000
     16 C2          -6.8340    -3.4860   -28.6970 c6         1 OVQ      -0.114700
     17 C20        -10.2060    -6.8630   -23.4720 ca         1 OVQ      -0.071000
     18 C3          -5.7840    -2.4060   -29.1390 c6         1 OVQ       0.141300
     19 C4          -5.0490    -2.8050   -30.4630 c6         1 OVQ       0.159300
     20 C5          -4.5480    -4.2840   -30.4360 c6         1 OVQ       0.175300
     21 C6          -3.2270    -4.5310   -29.6260 c3         1 OVQ       0.173600
     22 C9          -9.1300    -1.9670   -25.7530 c3         1 OVQ       0.080600
     23 N10        -10.0520    -3.0850   -25.4920 na         1 OVQ       0.125800
     24 N11        -11.3260    -3.1110   -26.0100 nd         1 OVQ      -0.197800
     25 N12        -11.8900    -4.2230   -25.6060 nc         1 OVQ      -0.354000
     26 N17        -12.7780    -8.0020   -23.7340 nb         1 OVQ      -0.668000
     27 N3S         -1.3980    -2.4160   -27.9610 ns         1 OVQ      -0.629300
     28 O1S         -0.9540    -4.9000   -27.9520 o          1 OVQ      -0.537500
     29 O2S         -2.2270    -3.8300   -26.0100 o          1 OVQ      -0.537500
     30 O3          -6.4280    -1.1380   -29.3750 oh         1 OVQ      -0.678000
     31 O4          -5.9770    -2.5790   -31.5380 oh         1 OVQ      -0.718000
     32 O5          -5.6120    -5.1840   -30.0200 os         1 OVQ      -0.431000
     33 O6          -3.2970    -3.9810   -28.2970 os         1 OVQ      -0.570700
     34 S           -1.9010    -3.9070   -27.4380 s6         1 OVQ       1.440500
     35 H1           0.5900    -0.3070   -27.9620 hn         1 OVQ       0.423500
     36 H2           0.3180    -0.7760   -29.4950 hn         1 OVQ       0.423500
     37 H4          -1.5960     0.8550   -27.8910 h1         1 OVQ       0.096700
     38 H5          -3.2660     0.1970   -29.6510 hc         1 OVQ       0.047700
     39 H6          -1.9990    -0.6190   -30.5450 hc         1 OVQ       0.047700
     40 H7          -0.8180     1.5880   -30.8530 hc         1 OVQ       0.058700
     41 H8          -1.6180     2.8760   -28.9010 hc         1 OVQ       0.035200
     42 H9          -2.0570     3.7240   -30.3880 hc         1 OVQ       0.035200
     43 H10         -3.2920     2.8070   -29.5010 hc         1 OVQ       0.035200
     44 H11         -2.3760     2.4930   -32.5530 hc         1 OVQ       0.035200
     45 H12         -2.3400     0.7220   -32.6100 hc         1 OVQ       0.035200
     46 H13         -3.7150     1.5560   -31.8540 hc         1 OVQ       0.035200
     47 H14         -6.9690    -5.6590   -28.5340 h1         1 OVQ       0.056200
     48 H15         -5.4380    -5.0130   -27.9390 h1         1 OVQ       0.056200
     49 H16         -8.8800    -4.4150   -24.2260 h4         1 OVQ       0.168000
     50 H17        -13.2930    -6.3300   -24.8450 h4         1 OVQ       0.040100
     51 H18        -12.0660    -9.5950   -22.6000 h4         1 OVQ       0.019100
     52 H19         -9.7650    -8.6520   -22.3260 ha         1 OVQ       0.123000
     53 H20         -7.6670    -3.4870   -29.4140 hc         1 OVQ       0.082700
     54 H21         -9.2070    -6.4510   -23.3580 ha         1 OVQ       0.113000
     55 H22         -5.0360    -2.3000   -28.3410 h1         1 OVQ       0.065700
     56 H23         -4.1790    -2.1440   -30.5900 h1         1 OVQ       0.037700
     57 H24         -4.2990    -4.5520   -31.4730 h1         1 OVQ       0.094700
     58 H25         -3.0310    -5.6110   -29.5940 h1         1 OVQ       0.059700
     59 H26         -2.4110    -4.0620   -30.1920 h1         1 OVQ       0.059700
     60 H27         -8.0160    -4.1480   -26.9980 hc         1 OVQ       0.045200
     61 H28         -6.6580    -3.1490   -26.5360 hc         1 OVQ       0.045200
     62 H29         -7.8680    -1.1050   -27.2560 hc         1 OVQ       0.066700
     63 H30         -9.1810    -2.0710   -27.9210 hc         1 OVQ       0.066700
     64 H31         -8.3770    -1.9400   -24.9560 h1         1 OVQ       0.067700
     65 H32         -9.7040    -1.0330   -25.6950 h1         1 OVQ       0.067700
     66 H33         -0.6200    -2.4930   -28.5900 hn         1 OVQ       0.342500
     67 H34         -6.3000    -0.5990   -28.5640 ho         1 OVQ       0.455000
     68 H35         -6.5550    -1.8740   -31.1480 ho         1 OVQ       0.526000
     69 C7          -7.4590    -3.2460   -27.2800 c3         1 OVQ      -0.073400
     70 C8          -8.4230    -2.0390   -27.1280 c3         1 OVQ      -0.096400
@<TRIPOS>BOND
     1     1     2 1   
     2     1    35 1   
     3     1    36 1   
     4     2     3 1   
     5     2     5 1   
     6     2    37 1   
     7     3     4 2   
     8     3    27 1   
     9     5     6 1   
    10     5    38 1   
    11     5    39 1   
    12     6     7 1   
    13     6     8 1   
    14     6    40 1   
    15     7    41 1   
    16     7    42 1   
    17     7    43 1   
    18     8    44 1   
    19     8    45 1   
    20     8    46 1   
    21     9    16 1   
    22     9    32 1   
    23     9    47 1   
    24     9    48 1   
    25    10    11 2   
    26    10    12 1   
    27    10    25 1   
    28    11    23 1   
    29    11    49 1   
    30    12    13 ar  
    31    12    17 ar  
    32    13    26 ar  
    33    13    50 1   
    34    14    15 ar  
    35    14    26 ar  
    36    14    51 1   
    37    15    17 ar  
    38    15    52 1   
    39    16    18 1   
    40    16    53 1   
    41    16    69 1   
    42    17    54 1   
    43    18    19 1   
    44    18    30 1   
    45    18    55 1   
    46    19    20 1   
    47    19    31 1   
    48    19    56 1   
    49    20    21 1   
    50    20    32 1   
    51    20    57 1   
    52    21    33 1   
    53    21    58 1   
    54    21    59 1   
    55    22    23 1   
    56    22    64 1   
    57    22    65 1   
    58    22    70 1   
    59    23    24 1   
    60    24    25 2   
    61    27    34 1   
    62    27    66 1   
    63    28    34 2   
    64    29    34 2   
    65    30    67 1   
    66    31    68 1   
    67    33    34 1   
    68    60    69 1   
    69    61    69 1   
    70    62    70 1   
    71    63    70 1   
    72    69    70 1   
@<TRIPOS>SUBSTRUCTURE
     1 OVQ         1 TEMP              0 ****  ****    0 ROOT
