@<TRIPOS>MOLECULE
OVQ
   70    72     1     0     0
SMALL
abcg2


@<TRIPOS>ATOM
      1 N            0.2230    -0.6420   -28.7300 n8         1 OVQ      -1.045200
      2 CA          -1.1420    -0.2240   -28.5580 c3         1 OVQ       0.114500
      3 C           -2.1290    -1.2480   -27.9930 c          1 OVQ       0.586100
      4 O           -3.2360    -0.9510   -27.6130 o          1 OVQ      -0.541100
      5 CB          -1.7200     0.2960   -29.8810 c3         1 OVQ      -0.067400
      6 CG          -0.9240     1.4400   -30.5120 c3         1 OVQ      -0.053700
      7 CD1         -0.8110     2.6400   -29.5780 c3         1 OVQ      -0.089100
      8 CD2         -1.5710     1.8410   -31.8350 c3         1 OVQ      -0.089100
      9 C1          -6.7480    -4.6710   -29.0420 c6         1 OVQ       0.161600
     10 C13        -10.8360    -5.3380   -24.8120 cc         1 OVQ       0.258500
     11 C14        -10.1050    -4.1740   -24.8750 cd         1 OVQ      -0.202000
     12 C15        -10.7030    -6.4730   -23.9060 ca         1 OVQ      -0.156500
     13 C16        -11.6560    -7.4930   -23.8870 ca         1 OVQ       0.364900
     14 C18        -10.5550    -8.6470   -22.2620 ca         1 OVQ       0.337900
     15 C19         -9.5510    -7.6910   -22.1950 ca         1 OVQ      -0.167000
     16 C2          -7.4290    -3.3110   -28.9450 c6         1 OVQ      -0.114700
     17 C20         -9.6270    -6.5910   -23.0310 ca         1 OVQ      -0.071000
     18 C3          -6.3580    -2.2270   -29.0410 c6         1 OVQ       0.141300
     19 C4          -5.4990    -2.4160   -30.2930 c6         1 OVQ       0.159300
     20 C5          -4.9860    -3.8520   -30.4470 c6         1 OVQ       0.175300
     21 C6          -3.6880    -4.1380   -29.7140 c3         1 OVQ       0.173600
     22 C9         -10.2480    -2.2150   -26.4460 c3         1 OVQ       0.080600
     23 N10        -10.6610    -3.4910   -25.8850 na         1 OVQ       0.125800
     24 N11        -11.6590    -4.1680   -26.4220 nd         1 OVQ      -0.197800
     25 N12        -11.7760    -5.2790   -25.7830 nc         1 OVQ      -0.354000
     26 N17        -11.5870    -8.5500   -23.0920 nb         1 OVQ      -0.668000
     27 N3S         -1.6760    -2.5500   -27.9780 ns         1 OVQ      -0.629300
     28 O1S         -1.7230    -4.9900   -27.6220 o          1 OVQ      -0.537500
     29 O2S         -3.0470    -3.5380   -26.0670 o          1 OVQ      -0.537500
     30 O3          -6.9120    -0.9260   -29.1180 oh         1 OVQ      -0.678000
     31 O4          -6.2450    -2.1320   -31.4560 oh         1 OVQ      -0.718000
     32 O5          -5.9830    -4.8170   -30.2220 os         1 OVQ      -0.431000
     33 O6          -3.8280    -3.8540   -28.3060 os         1 OVQ      -0.570700
     34 S           -2.5460    -3.8320   -27.3790 s6         1 OVQ       1.440500
     35 H1           0.6570    -0.9910   -27.8880 hn         1 OVQ       0.423500
     36 H2           0.3640    -1.2940   -29.4900 hn         1 OVQ       0.423500
     37 H4          -1.1590     0.5900   -27.8270 h1         1 OVQ       0.096700
     38 H5          -2.7480     0.6260   -29.7100 hc         1 OVQ       0.047700
     39 H6          -1.7760    -0.5340   -30.5960 hc         1 OVQ       0.047700
     40 H7           0.0850     1.0770   -30.7240 hc         1 OVQ       0.058700
     41 H8          -0.2530     2.4000   -28.6720 hc         1 OVQ       0.035200
     42 H9          -0.2910     3.4650   -30.0680 hc         1 OVQ       0.035200
     43 H10         -1.7980     3.0010   -29.2780 hc         1 OVQ       0.035200
     44 H11         -0.9990     2.6290   -32.3260 hc         1 OVQ       0.035200
     45 H12         -1.6290     0.9960   -32.5230 hc         1 OVQ       0.035200
     46 H13         -2.5860     2.2150   -31.6820 hc         1 OVQ       0.035200
     47 H14         -7.5040    -5.4570   -29.0790 h1         1 OVQ       0.056200
     48 H15         -6.1440    -4.8540   -28.1440 h1         1 OVQ       0.056200
     49 H16         -9.2780    -3.7900   -24.3020 h4         1 OVQ       0.168000
     50 H17        -12.5140    -7.4430   -24.5490 h4         1 OVQ       0.040100
     51 H18        -10.5220    -9.5220   -21.6240 h4         1 OVQ       0.019100
     52 H19         -8.7270    -7.8110   -21.5060 ha         1 OVQ       0.123000
     53 H20         -8.1070    -3.2130   -29.8010 hc         1 OVQ       0.082700
     54 H21         -8.8490    -5.8380   -23.0010 ha         1 OVQ       0.113000
     55 H22         -5.7090    -2.3040   -28.1630 h1         1 OVQ       0.065700
     56 H23         -4.6310    -1.7410   -30.2220 h1         1 OVQ       0.037700
     57 H24         -4.7000    -3.9710   -31.4980 h1         1 OVQ       0.094700
     58 H25         -3.4080    -5.1840   -29.8470 h1         1 OVQ       0.059700
     59 H26         -2.9010    -3.5110   -30.1430 h1         1 OVQ       0.059700
     60 H27         -8.5410    -4.2470   -27.3610 hc         1 OVQ       0.045200
     61 H28         -7.6110    -2.8670   -26.8330 hc         1 OVQ       0.045200
     62 H29         -9.2510    -1.3700   -28.1080 hc         1 OVQ       0.066700
     63 H30        -10.1710    -2.8010   -28.5100 hc         1 OVQ       0.066700
     64 H31         -9.6240    -1.7270   -25.6970 h1         1 OVQ       0.067700
     65 H32        -11.1400    -1.6050   -26.5790 h1         1 OVQ       0.067700
     66 H33         -0.7310    -2.7570   -28.2790 hn         1 OVQ       0.342500
     67 H34         -6.9310    -0.5390   -28.2400 ho         1 OVQ       0.455000
     68 H35         -6.6530    -1.2670   -31.3400 ho         1 OVQ       0.526000
     69 C7          -8.2450    -3.2330   -27.6490 c3         1 OVQ      -0.073400
     70 C8          -9.4990    -2.3740   -27.7610 c3         1 OVQ      -0.096400
@<TRIPOS>BOND
     1     1     2 1   
     2     1    35 1   
     3     1    36 1   
     4     2     3 1   
     5     2     5 1   
     6     2    37 1   
     7     3     4 2   
     8     3    27 1   
     9     5     6 1   
    10     5    38 1   
    11     5    39 1   
    12     6     7 1   
    13     6     8 1   
    14     6    40 1   
    15     7    41 1   
    16     7    42 1   
    17     7    43 1   
    18     8    44 1   
    19     8    45 1   
    20     8    46 1   
    21     9    16 1   
    22     9    32 1   
    23     9    47 1   
    24     9    48 1   
    25    10    11 2   
    26    10    12 1   
    27    10    25 1   
    28    11    23 1   
    29    11    49 1   
    30    12    13 ar  
    31    12    17 ar  
    32    13    26 ar  
    33    13    50 1   
    34    14    15 ar  
    35    14    26 ar  
    36    14    51 1   
    37    15    17 ar  
    38    15    52 1   
    39    16    18 1   
    40    16    53 1   
    41    16    69 1   
    42    17    54 1   
    43    18    19 1   
    44    18    30 1   
    45    18    55 1   
    46    19    20 1   
    47    19    31 1   
    48    19    56 1   
    49    20    21 1   
    50    20    32 1   
    51    20    57 1   
    52    21    33 1   
    53    21    58 1   
    54    21    59 1   
    55    22    23 1   
    56    22    64 1   
    57    22    65 1   
    58    22    70 1   
    59    23    24 1   
    60    24    25 2   
    61    27    34 1   
    62    27    66 1   
    63    28    34 2   
    64    29    34 2   
    65    30    67 1   
    66    31    68 1   
    67    33    34 1   
    68    60    69 1   
    69    61    69 1   
    70    62    70 1   
    71    63    70 1   
    72    69    70 1   
@<TRIPOS>SUBSTRUCTURE
     1 OVQ         1 TEMP              0 ****  ****    0 ROOT
