@<TRIPOS>MOLECULE
OVR
   45    47     1     0     0
SMALL
No Charge or Current Charge


@<TRIPOS>ATOM
      1 C1          11.4900     3.1620    13.2750 c5         1 OVR       0.131500
      2 C2          12.7940     3.9790    13.0340 c6         1 OVR      -0.080400
      3 C3          13.3000     3.8950    11.5670 c6         1 OVR       0.181300
      4 C4          12.1130     3.9880    10.5790 c6         1 OVR      -0.064400
      5 C5          10.8570     3.1920    11.0430 c5         1 OVR       0.160500
      6 C6          11.0850     1.6750    11.3530 c5         1 OVR      -0.098400
      7 N1          10.4460     3.7220    12.3690 n3         1 OVR      -0.702600
      8 C7          11.5810     1.6460    12.8420 c5         1 OVR       0.138300
      9 O1          10.7730     0.7760    13.6470 oh         1 OVR      -0.667000
     10 C8           9.0410     3.4390    12.7590 c3         1 OVR       0.146100
     11 O2          14.0540     2.6890    11.3180 os         1 OVR      -0.455100
     12 C9          15.3170     2.5210    11.8240 c          1 OVR       0.596100
     13 C10         15.8870     1.1380    11.4800 c3         1 OVR      -0.076400
     14 C11         17.1610     1.2670    10.6320 ca         1 OVR      -0.068300
     15 C12         18.3870     1.6660    11.2070 ca         1 OVR      -0.094000
     16 C13         19.5400     1.7900    10.4120 ca         1 OVR      -0.111000
     17 C14         19.4790     1.5210     9.0350 ca         1 OVR      -0.106000
     18 C15         18.2620     1.1300     8.4530 ca         1 OVR      -0.111000
     19 C16         17.1090     1.0060     9.2470 ca         1 OVR      -0.094000
     20 C17         16.0640     0.3150    12.7760 c3         1 OVR       0.174600
     21 O3          16.4380    -1.0350    12.4620 oh         1 OVR      -0.664000
     22 O4          15.9180     3.3700    12.4680 o          1 OVR      -0.496000
     23 H1          11.2150     3.2680    14.3340 h1         1 OVR       0.064700
     24 H2          13.5720     3.6440    13.7330 hc         1 OVR       0.061200
     25 H3          12.6000     5.0300    13.2850 hc         1 OVR       0.061200
     26 H4          13.9690     4.7470    11.3710 h1         1 OVR       0.068700
     27 H5          12.4280     3.6410     9.5860 hc         1 OVR       0.062700
     28 H6          11.8330     5.0420    10.4550 hc         1 OVR       0.062700
     29 H7          10.0740     3.3290    10.2820 h1         1 OVR       0.067700
     30 H8          10.1520     1.1140    11.2320 hc         1 OVR       0.065700
     31 H9          11.8080     1.2210    10.6670 hc         1 OVR       0.065700
     32 H11         12.6240     1.3040    12.8940 h1         1 OVR       0.049700
     33 H12         11.1160     0.8330    14.5650 ho         1 OVR       0.439000
     34 H13          8.8310     3.8470    13.7560 h1         1 OVR       0.038033
     35 H14          8.3470     3.9100    12.0500 h1         1 OVR       0.038033
     36 H15          8.8240     2.3640    12.7780 h1         1 OVR       0.038033
     37 H16         15.1210     0.6200    10.8920 hc         1 OVR       0.087700
     38 H17         18.4520     1.8880    12.2690 ha         1 OVR       0.115000
     39 H18         20.4810     2.0980    10.8640 ha         1 OVR       0.113000
     40 H19         20.3710     1.6180     8.4200 ha         1 OVR       0.112000
     41 H20         18.2110     0.9240     7.3860 ha         1 OVR       0.113000
     42 H21         16.1730     0.7050     8.7810 ha         1 OVR       0.115000
     43 H22         16.8200     0.7850    13.4180 h1         1 OVR       0.036700
     44 H23         15.1150     0.3200    13.3300 h1         1 OVR       0.036700
     45 H24         16.5590    -1.5060    13.3160 ho         1 OVR       0.446000
@<TRIPOS>BOND
     1     1     2 1   
     2     1     7 1   
     3     1     8 1   
     4     1    23 1   
     5     2     3 1   
     6     2    24 1   
     7     2    25 1   
     8     3     4 1   
     9     3    11 1   
    10     3    26 1   
    11     4     5 1   
    12     4    27 1   
    13     4    28 1   
    14     5     6 1   
    15     5     7 1   
    16     5    29 1   
    17     6     8 1   
    18     6    30 1   
    19     6    31 1   
    20     7    10 1   
    21     8     9 1   
    22     8    32 1   
    23     9    33 1   
    24    10    34 1   
    25    10    35 1   
    26    10    36 1   
    27    11    12 1   
    28    12    13 1   
    29    12    22 2   
    30    13    14 1   
    31    13    20 1   
    32    13    37 1   
    33    14    15 ar  
    34    14    19 ar  
    35    15    16 ar  
    36    15    38 1   
    37    16    17 ar  
    38    16    39 1   
    39    17    18 ar  
    40    17    40 1   
    41    18    19 ar  
    42    18    41 1   
    43    19    42 1   
    44    20    21 1   
    45    20    43 1   
    46    20    44 1   
    47    21    45 1   
@<TRIPOS>SUBSTRUCTURE
     1 OVR         1 TEMP              0 ****  ****    0 ROOT
