@<TRIPOS>MOLECULE
OVR
   45    47     1     0     0
SMALL
abcg2


@<TRIPOS>ATOM
      1 C1          11.3110     2.9210    13.0240 c5         1 OVR       0.131500
      2 C2          12.6200     3.5870    13.4640 c6         1 OVR      -0.080400
      3 C3          13.5890     3.8250    12.3010 c6         1 OVR       0.181300
      4 C4          12.8800     4.1830    10.9960 c6         1 OVR      -0.064400
      5 C5          11.5440     3.4550    10.8200 c5         1 OVR       0.160500
      6 C6          11.6780     1.9110    10.8510 c5         1 OVR      -0.098400
      7 N1          10.7070     3.7830    11.9910 n3         1 OVR      -0.702600
      8 C7          11.5550     1.5480    12.3420 c5         1 OVR       0.138300
      9 O1          10.4490     0.6460    12.5080 oh         1 OVR      -0.667000
     10 C8           9.2810     3.5550    11.7700 c3         1 OVR       0.146100
     11 O2          14.3550     2.6040    12.0410 os         1 OVR      -0.455100
     12 C9          15.4430     2.3640    12.7710 c          1 OVR       0.596100
     13 C10         16.0840     1.0510    12.3550 c3         1 OVR      -0.076400
     14 C11         16.7160     1.2040    10.9820 ca         1 OVR      -0.068300
     15 C12         17.8080     2.0500    10.7900 ca         1 OVR      -0.094000
     16 C13         18.3800     2.1920     9.5310 ca         1 OVR      -0.111000
     17 C14         17.8630     1.4890     8.4450 ca         1 OVR      -0.106000
     18 C15         16.7710     0.6480     8.6280 ca         1 OVR      -0.111000
     19 C16         16.2010     0.5090     9.8900 ca         1 OVR      -0.094000
     20 C17         17.0620     0.5680    13.4200 c3         1 OVR       0.174600
     21 O3          17.5110    -0.7300    13.0330 oh         1 OVR      -0.664000
     22 O4          15.8670     3.1020    13.6340 o          1 OVR      -0.496000
     23 H1          10.6440     2.8230    13.8810 h1         1 OVR       0.064700
     24 H2          13.1170     2.9980    14.2360 hc         1 OVR       0.061200
     25 H3          12.3740     4.5570    13.9000 hc         1 OVR       0.061200
     26 H4          14.3100     4.5960    12.5660 h1         1 OVR       0.068700
     27 H5          13.5510     3.9790    10.1590 hc         1 OVR       0.062700
     28 H6          12.6810     5.2560    11.0060 hc         1 OVR       0.062700
     29 H7          11.0630     3.8070     9.9070 h1         1 OVR       0.067700
     30 H8          10.8540     1.4460    10.3110 hc         1 OVR       0.065700
     31 H9          12.6100     1.5620    10.4100 hc         1 OVR       0.065700
     32 H11         12.4580     1.0710    12.7250 h1         1 OVR       0.049700
     33 H12         10.4000     0.4060    13.4420 ho         1 OVR       0.439000
     34 H13          8.7420     3.7390    12.7010 h1         1 OVR       0.038033
     35 H14          8.9220     4.2650    11.0220 h1         1 OVR       0.038033
     36 H15          9.0340     2.5420    11.4310 h1         1 OVR       0.038033
     37 H16         15.2770     0.3200    12.2740 hc         1 OVR       0.087700
     38 H17         18.2160     2.6040    11.6270 ha         1 OVR       0.115000
     39 H18         19.2280     2.8520     9.3970 ha         1 OVR       0.113000
     40 H19         18.3090     1.5990     7.4650 ha         1 OVR       0.112000
     41 H20         16.3620     0.0980     7.7900 ha         1 OVR       0.113000
     42 H21         15.3500    -0.1460    10.0300 ha         1 OVR       0.115000
     43 H22         17.9040     1.2600    13.5080 h1         1 OVR       0.036700
     44 H23         16.5520     0.5280    14.3870 h1         1 OVR       0.036700
     45 H24         18.1590    -1.0300    13.6810 ho         1 OVR       0.446000
@<TRIPOS>BOND
     1     1     2 1   
     2     1     7 1   
     3     1     8 1   
     4     1    23 1   
     5     2     3 1   
     6     2    24 1   
     7     2    25 1   
     8     3     4 1   
     9     3    11 1   
    10     3    26 1   
    11     4     5 1   
    12     4    27 1   
    13     4    28 1   
    14     5     6 1   
    15     5     7 1   
    16     5    29 1   
    17     6     8 1   
    18     6    30 1   
    19     6    31 1   
    20     7    10 1   
    21     8     9 1   
    22     8    32 1   
    23     9    33 1   
    24    10    34 1   
    25    10    35 1   
    26    10    36 1   
    27    11    12 1   
    28    12    13 1   
    29    12    22 2   
    30    13    14 1   
    31    13    20 1   
    32    13    37 1   
    33    14    15 ar  
    34    14    19 ar  
    35    15    16 ar  
    36    15    38 1   
    37    16    17 ar  
    38    16    39 1   
    39    17    18 ar  
    40    17    40 1   
    41    18    19 ar  
    42    18    41 1   
    43    19    42 1   
    44    20    21 1   
    45    20    43 1   
    46    20    44 1   
    47    21    45 1   
@<TRIPOS>SUBSTRUCTURE
     1 OVR         1 TEMP              0 ****  ****    0 ROOT
