@<TRIPOS>MOLECULE
OVS
   31    33     1     0     0
SMALL
No Charge or Current Charge


@<TRIPOS>ATOM
      1 O11         -2.4770     1.2270    -0.1990 os         1 OVS      -0.263200
      2 C12         -3.3680     0.1770    -0.2190 ca         1 OVS       0.149100
      3 C13         -4.6270     0.3440     0.3820 ca         1 OVS      -0.162500
      4 C15         -5.2400    -1.9210    -0.2650 ca         1 OVS      -0.159000
      5 C20          1.6390     0.7500     0.2530 ca         1 OVS      -0.081800
      6 C02          4.3030    -1.3790     0.3230 c          1 OVS       0.728000
      7 C05          3.0890     0.8290     0.1970 cc         1 OVS      -0.022400
      8 C06          3.3310     1.8510    -0.7140 cd         1 OVS      -0.139900
      9 C08          1.1260     1.6980    -0.6000 ca         1 OVS       0.058100
     10 C09         -0.2470     1.8880    -0.7810 ca         1 OVS      -0.130000
     11 C10         -1.1190     1.0530    -0.0530 ca         1 OVS       0.089100
     12 C14         -5.5630    -0.7050     0.3630 ca         1 OVS      -0.083500
     13 C16         -3.9860    -2.0870    -0.8780 ca         1 OVS      -0.083500
     14 C17         -3.0510    -1.0370    -0.8590 ca         1 OVS      -0.162500
     15 C18         -0.6010     0.0780     0.8400 ca         1 OVS      -0.173000
     16 C19          0.7950    -0.0860     0.9970 ca         1 OVS      -0.005000
     17 O01          3.5570    -2.2890     0.6540 o          1 OVS      -0.723500
     18 O03          5.1300    -1.4750    -0.5710 o          1 OVS      -0.723500
     19 O07          2.1490     2.3680    -1.1890 os         1 OVS      -0.192200
     20 H1          -4.8750     1.2860     0.8640 ha         1 OVS       0.132000
     21 H2          -5.9640    -2.7330    -0.2800 ha         1 OVS       0.104000
     22 H3           3.6810    -0.1150     1.9740 hc         1 OVS       0.034200
     23 H4           5.0290     0.5660     0.9440 hc         1 OVS       0.034200
     24 H5           4.2610     2.2760    -1.0810 h4         1 OVS       0.224000
     25 H6          -0.6260     2.6470    -1.4590 ha         1 OVS       0.127000
     26 H7          -6.5360    -0.5760     0.8330 ha         1 OVS       0.106000
     27 H8          -3.7410    -3.0260    -1.3700 ha         1 OVS       0.106000
     28 H9          -2.0870    -1.1660    -1.3440 ha         1 OVS       0.132000
     29 H10         -1.2770    -0.5510     1.4140 ha         1 OVS       0.116000
     30 H11          1.2000    -0.8340     1.6750 ha         1 OVS       0.143000
     31 C04          4.0890     0.0010     0.9630 c3         1 OVS      -0.177200
@<TRIPOS>BOND
     1     1     2 1   
     2     1    11 1   
     3     2     3 ar  
     4     2    14 ar  
     5     3    12 ar  
     6     3    20 1   
     7     4    12 ar  
     8     4    13 ar  
     9     4    21 1   
    10     5     7 1   
    11     5     9 ar  
    12     5    16 ar  
    13     6    17 1   
    14     6    18 1   
    15     6    31 1   
    16     7     8 2   
    17     7    31 1   
    18     8    19 1   
    19     8    24 1   
    20     9    10 ar  
    21     9    19 1   
    22    10    11 ar  
    23    10    25 1   
    24    11    15 ar  
    25    12    26 1   
    26    13    14 ar  
    27    13    27 1   
    28    14    28 1   
    29    15    16 ar  
    30    15    29 1   
    31    16    30 1   
    32    22    31 1   
    33    23    31 1   
@<TRIPOS>SUBSTRUCTURE
     1 OVS         1 TEMP              0 ****  ****    0 ROOT
