@<TRIPOS>MOLECULE
OVS
   31    33     1     0     0
SMALL
abcg2


@<TRIPOS>ATOM
      1 O11         -2.4670     1.0710     0.6390 os         1 OVS      -0.263200
      2 C12         -3.3040     0.1060     0.1710 ca         1 OVS       0.149100
      3 C13         -4.6520     0.2720     0.4930 ca         1 OVS      -0.162500
      4 C15         -5.1860    -1.7380    -0.7240 ca         1 OVS      -0.159000
      5 C20          1.6340     0.6760     0.2830 ca         1 OVS      -0.081800
      6 C02          4.2320    -1.3820     0.3910 c          1 OVS       0.728000
      7 C05          3.0110     0.8160    -0.1120 cc         1 OVS      -0.022400
      8 C06          2.9870     1.6900    -1.1380 cd         1 OVS      -0.139900
      9 C08          0.9030     1.5000    -0.5730 ca         1 OVS       0.058100
     10 C09         -0.4740     1.6450    -0.5100 ca         1 OVS      -0.130000
     11 C10         -1.1050     0.9240     0.4870 ca         1 OVS       0.089100
     12 C14         -5.5840    -0.6520     0.0460 ca         1 OVS      -0.083500
     13 C16         -3.8430    -1.8910    -1.0400 ca         1 OVS      -0.083500
     14 C17         -2.8940    -0.9770    -0.5990 ca         1 OVS      -0.162500
     15 C18         -0.4100     0.0860     1.3650 ca         1 OVS      -0.173000
     16 C19          0.9630    -0.0500     1.2630 ca         1 OVS      -0.005000
     17 O01          3.2380    -1.9410    -0.0960 o          1 OVS      -0.723500
     18 O03          5.2690    -1.9090     0.8310 o          1 OVS      -0.723500
     19 O07          1.7220     2.1140    -1.4460 os         1 OVS      -0.192200
     20 H1          -4.9620     1.1270     1.0820 ha         1 OVS       0.132000
     21 H2          -5.9140    -2.4570    -1.0770 ha         1 OVS       0.104000
     22 H3           4.2320     0.4200     1.5750 hc         1 OVS       0.034200
     23 H4           5.1100     0.5820     0.0800 hc         1 OVS       0.034200
     24 H5           3.7780     2.0990    -1.7480 h4         1 OVS       0.224000
     25 H6          -1.0240     2.2850    -1.1880 ha         1 OVS       0.127000
     26 H7          -6.6280    -0.5150     0.2980 ha         1 OVS       0.106000
     27 H8          -3.5200    -2.7310    -1.6410 ha         1 OVS       0.106000
     28 H9          -1.8550    -1.1150    -0.8620 ha         1 OVS       0.132000
     29 H10         -0.9560    -0.4560     2.1270 ha         1 OVS       0.116000
     30 H11          1.5000    -0.7060     1.9320 ha         1 OVS       0.143000
     31 C04          4.1940     0.1680     0.5090 c3         1 OVS      -0.177200
@<TRIPOS>BOND
     1     1     2 1   
     2     1    11 1   
     3     2     3 ar  
     4     2    14 ar  
     5     3    12 ar  
     6     3    20 1   
     7     4    12 ar  
     8     4    13 ar  
     9     4    21 1   
    10     5     7 1   
    11     5     9 ar  
    12     5    16 ar  
    13     6    17 1   
    14     6    18 1   
    15     6    31 1   
    16     7     8 2   
    17     7    31 1   
    18     8    19 1   
    19     8    24 1   
    20     9    10 ar  
    21     9    19 1   
    22    10    11 ar  
    23    10    25 1   
    24    11    15 ar  
    25    12    26 1   
    26    13    14 ar  
    27    13    27 1   
    28    14    28 1   
    29    15    16 ar  
    30    15    29 1   
    31    16    30 1   
    32    22    31 1   
    33    23    31 1   
@<TRIPOS>SUBSTRUCTURE
     1 OVS         1 TEMP              0 ****  ****    0 ROOT
