@<TRIPOS>MOLECULE
OVT
   77    79     1     0     0
SMALL
No Charge or Current Charge


@<TRIPOS>ATOM
      1 C1          -6.1110    -4.6160   -28.3620 c6         1 OVT       0.157600
      2 C2          -6.7730    -3.2090   -28.2900 c6         1 OVT      -0.085700
      3 C3          -5.7920    -2.1170   -28.8460 c6         1 OVT       0.136300
      4 C4          -5.1780    -2.5250   -30.2280 c6         1 OVT       0.126300
      5 C5          -4.6430    -3.9940   -30.2240 c6         1 OVT       0.176300
      6 C6          -3.2490    -4.2020   -29.5320 c3         1 OVT       0.175600
      7 C7          -7.2600    -2.9570   -26.8220 c3         1 OVT      -0.066400
      8 C8          -8.1810    -1.7310   -26.5830 c3         1 OVT      -0.092400
      9 C9          -8.7560    -1.6440   -25.1490 c3         1 OVT       0.081600
     10 N            0.2960     0.0960   -29.4180 n8         1 OVT      -1.044200
     11 CA          -1.1740     0.2340   -29.0880 c3         1 OVT       0.113500
     12 C           -1.8040    -0.8680   -28.1590 c          1 OVT       0.586100
     13 O           -2.7310    -0.6190   -27.4030 o          1 OVT      -0.550100
     14 CB          -2.0180     0.3670   -30.3870 c3         1 OVT      -0.066400
     15 CG          -1.6950     1.5890   -31.2970 c3         1 OVT      -0.053700
     16 CD1         -1.9320     2.9450   -30.5880 c3         1 OVT      -0.090100
     17 CD2         -2.4980     1.5180   -32.6160 c3         1 OVT      -0.090100
     18 C13        -10.5720    -4.5480   -24.0600 cc         1 OVT       0.206300
     19 C14         -9.3880    -3.8780   -24.0800 cd         1 OVT      -0.220000
     20 C15        -10.9000    -5.8750   -23.4240 c3         1 OVT      -0.092700
     21 C16         -9.6910    -6.5940   -22.7850 c3         1 OVT      -0.030100
     22 C17        -10.0810    -7.9330   -22.1730 ca         1 OVT      -0.081300
     23 C18        -10.5080    -8.0040   -20.8330 ca         1 OVT      -0.106000
     24 C19        -10.8730    -9.2390   -20.2690 ca         1 OVT      -0.109500
     25 C20        -10.8140   -10.4100   -21.0430 ca         1 OVT      -0.111000
     26 C21        -10.3920   -10.3450   -22.3810 ca         1 OVT      -0.109500
     27 C22        -10.0270    -9.1100   -22.9450 ca         1 OVT      -0.106000
     28 N10         -9.6730    -2.7420   -24.8020 na         1 OVT       0.127800
     29 N11        -10.9880    -2.7400   -25.1890 nd         1 OVT      -0.206800
     30 N12        -11.5280    -3.8430   -24.7340 nc         1 OVT      -0.365000
     31 N3S         -1.2290    -2.1000   -28.2330 ns         1 OVT      -0.624300
     32 O1S         -0.8720    -4.5840   -27.9680 o          1 OVT      -0.534500
     33 O2S         -1.9310    -3.2430   -26.0660 o          1 OVT      -0.534500
     34 O3          -6.4800    -0.8640   -29.0380 oh         1 OVT      -0.671000
     35 O4          -6.2070    -2.3440   -31.2160 oh         1 OVT      -0.713000
     36 O5          -5.6460    -4.9070   -29.6980 os         1 OVT      -0.431000
     37 O6          -3.2050    -3.6140   -28.2190 os         1 OVT      -0.570700
     38 S           -1.7360    -3.4990   -27.4970 s6         1 OVT       1.437500
     39 H1          -6.8500    -5.3810   -28.0840 h1         1 OVT       0.058200
     40 H2          -5.2830    -4.6970   -27.6460 h1         1 OVT       0.058200
     41 H3          -7.6720    -3.2340   -28.9210 hc         1 OVT       0.079700
     42 H4          -4.9780    -1.9860   -28.1200 h1         1 OVT       0.069700
     43 H5          -4.3400    -1.8490   -30.4510 h1         1 OVT       0.022700
     44 H6          -4.4840    -4.2760   -31.2740 h1         1 OVT       0.093700
     45 H7          -3.0360    -5.2790   -29.4890 h1         1 OVT       0.060700
     46 H8          -2.4960    -3.7400   -30.1850 h1         1 OVT       0.060700
     47 H9          -7.8030    -3.8490   -26.4870 hc         1 OVT       0.045200
     48 H10         -6.3900    -2.8730   -26.1570 hc         1 OVT       0.045200
     49 H11         -7.6180    -0.8100   -26.7630 hc         1 OVT       0.068700
     50 H12         -9.0090    -1.7460   -27.3030 hc         1 OVT       0.068700
     51 H13         -7.9320    -1.6340   -24.4250 h1         1 OVT       0.066200
     52 H14         -9.3010    -0.6980   -25.0400 h1         1 OVT       0.066200
     53 H16          0.4610    -0.7160   -30.0250 hn         1 OVT       0.424000
     54 H18         -1.2930     1.1610   -28.5100 h1         1 OVT       0.097700
     55 H19         -3.0790     0.4190   -30.1100 hc         1 OVT       0.044700
     56 H20         -1.9040    -0.5550   -30.9710 hc         1 OVT       0.044700
     57 H21         -0.6330     1.5410   -31.5690 hc         1 OVT       0.060700
     58 H22         -1.2630     3.0660   -29.7280 hc         1 OVT       0.035700
     59 H23         -1.7370     3.7780   -31.2740 hc         1 OVT       0.035700
     60 H24         -2.9680     3.0280   -30.2370 hc         1 OVT       0.035700
     61 H25         -2.2320     2.3500   -33.2790 hc         1 OVT       0.035700
     62 H26         -2.2880     0.5830   -33.1500 hc         1 OVT       0.035700
     63 H27         -3.5770     1.5660   -32.4210 hc         1 OVT       0.035700
     64 H28         -8.4150    -4.1080   -23.6650 h4         1 OVT       0.165000
     65 H29        -11.6670    -5.7230   -22.6550 hc         1 OVT       0.062700
     66 H30        -11.3430    -6.5350   -24.1790 hc         1 OVT       0.062700
     67 H31         -8.9160    -6.7420   -23.5480 hc         1 OVT       0.046700
     68 H32         -9.2490    -5.9460   -22.0180 hc         1 OVT       0.046700
     69 H33        -10.5590    -7.1010   -20.2270 ha         1 OVT       0.111000
     70 H34        -11.2020    -9.2880   -19.2330 ha         1 OVT       0.111500
     71 H35        -11.0970   -11.3660   -20.6070 ha         1 OVT       0.111000
     72 H36        -10.3470   -11.2510   -22.9820 ha         1 OVT       0.111500
     73 H37         -9.7030    -9.0690   -23.9830 ha         1 OVT       0.111000
     74 H38         -0.4770    -2.2760   -28.8740 hn         1 OVT       0.341500
     75 H39         -5.9290    -0.1690   -28.6120 ho         1 OVT       0.453000
     76 H40         -6.7750    -1.6530   -30.7900 ho         1 OVT       0.523000
     77 H15          0.8350    -0.1070   -28.5640 hn         1 OVT       0.424000
@<TRIPOS>BOND
     1     1     2 1   
     2     1    36 1   
     3     1    39 1   
     4     1    40 1   
     5     2     3 1   
     6     2     7 1   
     7     2    41 1   
     8     3     4 1   
     9     3    34 1   
    10     3    42 1   
    11     4     5 1   
    12     4    35 1   
    13     4    43 1   
    14     5     6 1   
    15     5    36 1   
    16     5    44 1   
    17     6    37 1   
    18     6    45 1   
    19     6    46 1   
    20     7     8 1   
    21     7    47 1   
    22     7    48 1   
    23     8     9 1   
    24     8    49 1   
    25     8    50 1   
    26     9    28 1   
    27     9    51 1   
    28     9    52 1   
    29    10    11 1   
    30    10    53 1   
    31    10    77 1   
    32    11    12 1   
    33    11    14 1   
    34    11    54 1   
    35    12    13 2   
    36    12    31 1   
    37    14    15 1   
    38    14    55 1   
    39    14    56 1   
    40    15    16 1   
    41    15    17 1   
    42    15    57 1   
    43    16    58 1   
    44    16    59 1   
    45    16    60 1   
    46    17    61 1   
    47    17    62 1   
    48    17    63 1   
    49    18    19 2   
    50    18    20 1   
    51    18    30 1   
    52    19    28 1   
    53    19    64 1   
    54    20    21 1   
    55    20    65 1   
    56    20    66 1   
    57    21    22 1   
    58    21    67 1   
    59    21    68 1   
    60    22    23 ar  
    61    22    27 ar  
    62    23    24 ar  
    63    23    69 1   
    64    24    25 ar  
    65    24    70 1   
    66    25    26 ar  
    67    25    71 1   
    68    26    27 ar  
    69    26    72 1   
    70    27    73 1   
    71    28    29 1   
    72    29    30 2   
    73    31    38 1   
    74    31    74 1   
    75    32    38 2   
    76    33    38 2   
    77    34    75 1   
    78    35    76 1   
    79    37    38 1   
@<TRIPOS>SUBSTRUCTURE
     1 OVT         1 TEMP              0 ****  ****    0 ROOT
