@<TRIPOS>MOLECULE
OVT
   77    79     1     0     0
SMALL
abcg2


@<TRIPOS>ATOM
      1 C1          -6.6010    -4.5830   -28.9000 c6         1 OVT       0.157600
      2 C2          -7.1170    -3.1520   -28.7700 c6         1 OVT      -0.085700
      3 C3          -5.9260    -2.2170   -28.9260 c6         1 OVT       0.136300
      4 C4          -5.1740    -2.5000   -30.2330 c6         1 OVT       0.126300
      5 C5          -4.8320    -3.9800   -30.4090 c6         1 OVT       0.176300
      6 C6          -3.5220    -4.3960   -29.7640 c3         1 OVT       0.175600
      7 C7          -7.8320    -2.9960   -27.4230 c3         1 OVT      -0.066400
      8 C8          -8.9120    -1.9220   -27.4100 c3         1 OVT      -0.092400
      9 C9          -9.5320    -1.7020   -26.0380 c3         1 OVT       0.081600
     10 N            0.0970    -0.4400   -29.0890 n8         1 OVT      -1.044200
     11 CA          -1.2560    -0.1690   -28.6900 c3         1 OVT       0.113500
     12 C           -2.0460    -1.3130   -28.0510 c          1 OVT       0.586100
     13 O           -3.0940    -1.1370   -27.4730 o          1 OVT      -0.550100
     14 CB          -2.0790     0.3490   -29.8770 c3         1 OVT      -0.066400
     15 CG          -1.5120     1.5990   -30.5500 c3         1 OVT      -0.053700
     16 CD1         -1.3680     2.7630   -29.5770 c3         1 OVT      -0.090100
     17 CD2         -2.4070     1.9850   -31.7250 c3         1 OVT      -0.090100
     18 C13        -10.6240    -4.7060   -24.4330 cc         1 OVT       0.206300
     19 C14         -9.6940    -3.6970   -24.5100 cd         1 OVT      -0.220000
     20 C15        -10.6970    -5.8740   -23.5090 c3         1 OVT      -0.092700
     21 C16         -9.3190    -6.4110   -23.1120 c3         1 OVT      -0.030100
     22 C17         -9.4340    -7.5760   -22.1690 ca         1 OVT      -0.081300
     23 C18         -9.3540    -7.3930   -20.7910 ca         1 OVT      -0.106000
     24 C19         -9.5020    -8.4640   -19.9190 ca         1 OVT      -0.109500
     25 C20         -9.7340    -9.7400   -20.4160 ca         1 OVT      -0.111000
     26 C21         -9.8150    -9.9360   -21.7890 ca         1 OVT      -0.109500
     27 C22         -9.6660    -8.8620   -22.6560 ca         1 OVT      -0.106000
     28 N10        -10.1450    -2.9010   -25.4940 na         1 OVT       0.127800
     29 N11        -11.2650    -3.3720   -26.0030 nd         1 OVT      -0.206800
     30 N12        -11.5640    -4.4570   -25.3700 nc         1 OVT      -0.365000
     31 N3S         -1.4970    -2.5650   -28.2120 ns         1 OVT      -0.624300
     32 O1S         -1.2360    -5.0050   -27.9970 o          1 OVT      -0.534500
     33 O2S         -2.5010    -3.7860   -26.2060 o          1 OVT      -0.534500
     34 O3          -6.3570    -0.8680   -28.9270 oh         1 OVT      -0.671000
     35 O4          -5.9590    -2.1240   -31.3400 oh         1 OVT      -0.713000
     36 O5          -5.9140    -4.8250   -30.1120 os         1 OVT      -0.431000
     37 O6          -3.5220    -4.0940   -28.3490 os         1 OVT      -0.570700
     38 S           -2.1430    -3.9650   -27.5840 s6         1 OVT       1.437500
     39 H1          -7.4450    -5.2740   -28.8940 h1         1 OVT       0.058200
     40 H2          -5.9810    -4.8340   -28.0290 h1         1 OVT       0.058200
     41 H3          -7.8350    -2.9760   -29.5800 hc         1 OVT       0.079700
     42 H4          -5.2520    -2.3920   -28.0830 h1         1 OVT       0.069700
     43 H5          -4.2320    -1.9250   -30.2230 h1         1 OVT       0.022700
     44 H6          -4.6310    -4.1340   -31.4760 h1         1 OVT       0.093700
     45 H7          -3.3590    -5.4660   -29.8950 h1         1 OVT       0.060700
     46 H8          -2.7140    -3.8550   -30.2630 h1         1 OVT       0.060700
     47 H9          -8.2910    -3.9560   -27.1630 hc         1 OVT       0.045200
     48 H10         -7.0960    -2.7970   -26.6370 hc         1 OVT       0.045200
     49 H11         -8.4990    -0.9640   -27.7240 hc         1 OVT       0.068700
     50 H12         -9.6960    -2.1760   -28.1290 hc         1 OVT       0.068700
     51 H13         -8.7740    -1.3820   -25.3240 h1         1 OVT       0.066200
     52 H14        -10.2940    -0.9250   -26.0810 h1         1 OVT       0.066200
     53 H16          0.1760    -1.0300   -29.9060 hn         1 OVT       0.424000
     54 H18         -1.2360     0.6030   -27.9140 h1         1 OVT       0.097700
     55 H19         -3.0960     0.5610   -29.5340 hc         1 OVT       0.044700
     56 H20         -2.1600    -0.4500   -30.6230 hc         1 OVT       0.044700
     57 H21         -0.5210     1.3570   -30.9450 hc         1 OVT       0.060700
     58 H22         -0.6690     2.5420   -28.7690 hc         1 OVT       0.035700
     59 H23         -0.9940     3.6500   -30.0900 hc         1 OVT       0.035700
     60 H24         -2.3310     3.0220   -29.1300 hc         1 OVT       0.035700
     61 H25         -2.0140     2.8580   -32.2490 hc         1 OVT       0.035700
     62 H26         -2.4890     1.1730   -32.4500 hc         1 OVT       0.035700
     63 H27         -3.4160     2.2290   -31.3850 hc         1 OVT       0.035700
     64 H28         -8.7870    -3.4920   -23.9670 h4         1 OVT       0.165000
     65 H29        -11.2460    -5.5950   -22.6050 hc         1 OVT       0.062700
     66 H30        -11.2790    -6.6650   -23.9880 hc         1 OVT       0.062700
     67 H31         -8.7750    -6.7100   -24.0110 hc         1 OVT       0.046700
     68 H32         -8.7390    -5.6150   -22.6390 hc         1 OVT       0.046700
     69 H33         -9.1680    -6.4010   -20.3950 ha         1 OVT       0.111000
     70 H34         -9.4350    -8.3020   -18.8510 ha         1 OVT       0.111500
     71 H35         -9.8480   -10.5750   -19.7380 ha         1 OVT       0.111000
     72 H36         -9.9920   -10.9270   -22.1860 ha         1 OVT       0.111500
     73 H37         -9.7270    -9.0230   -23.7260 ha         1 OVT       0.111000
     74 H38         -0.5930    -2.6580   -28.6600 hn         1 OVT       0.341500
     75 H39         -5.6150    -0.3130   -28.6670 ho         1 OVT       0.453000
     76 H40         -6.3610    -1.2740   -31.1260 ho         1 OVT       0.523000
     77 H15          0.6820    -0.7940   -28.3460 hn         1 OVT       0.424000
@<TRIPOS>BOND
     1     1     2 1   
     2     1    36 1   
     3     1    39 1   
     4     1    40 1   
     5     2     3 1   
     6     2     7 1   
     7     2    41 1   
     8     3     4 1   
     9     3    34 1   
    10     3    42 1   
    11     4     5 1   
    12     4    35 1   
    13     4    43 1   
    14     5     6 1   
    15     5    36 1   
    16     5    44 1   
    17     6    37 1   
    18     6    45 1   
    19     6    46 1   
    20     7     8 1   
    21     7    47 1   
    22     7    48 1   
    23     8     9 1   
    24     8    49 1   
    25     8    50 1   
    26     9    28 1   
    27     9    51 1   
    28     9    52 1   
    29    10    11 1   
    30    10    53 1   
    31    10    77 1   
    32    11    12 1   
    33    11    14 1   
    34    11    54 1   
    35    12    13 2   
    36    12    31 1   
    37    14    15 1   
    38    14    55 1   
    39    14    56 1   
    40    15    16 1   
    41    15    17 1   
    42    15    57 1   
    43    16    58 1   
    44    16    59 1   
    45    16    60 1   
    46    17    61 1   
    47    17    62 1   
    48    17    63 1   
    49    18    19 2   
    50    18    20 1   
    51    18    30 1   
    52    19    28 1   
    53    19    64 1   
    54    20    21 1   
    55    20    65 1   
    56    20    66 1   
    57    21    22 1   
    58    21    67 1   
    59    21    68 1   
    60    22    23 ar  
    61    22    27 ar  
    62    23    24 ar  
    63    23    69 1   
    64    24    25 ar  
    65    24    70 1   
    66    25    26 ar  
    67    25    71 1   
    68    26    27 ar  
    69    26    72 1   
    70    27    73 1   
    71    28    29 1   
    72    29    30 2   
    73    31    38 1   
    74    31    74 1   
    75    32    38 2   
    76    33    38 2   
    77    34    75 1   
    78    35    76 1   
    79    37    38 1   
@<TRIPOS>SUBSTRUCTURE
     1 OVT         1 TEMP              0 ****  ****    0 ROOT
