@<TRIPOS>MOLECULE
OVU
   22    23     1     0     0
SMALL
abcg2


@<TRIPOS>ATOM
      1 OAD        -11.4440   -18.2510    10.9060 oh         1 OVU      -0.738000
      2 CAJ        -11.2330   -17.4570     9.7310 c6         1 OVU       0.146300
      3 CAK        -12.3770   -16.5070     9.4940 cx         1 OVU       0.045300
      4 OAG        -13.5790   -17.1020     8.9760 op         1 OVU      -0.455000
      5 CAL        -12.8300   -16.2070     8.1320 cx         1 OVU       0.150300
      6 CAM        -12.1660   -16.8280     6.9060 c6         1 OVU       0.036000
      7 CAH        -11.7630   -15.6720     5.9350 c          1 OVU       0.696000
      8 OAA        -12.2250   -15.7700     4.7680 o          1 OVU      -0.708000
      9 OAB        -11.0340   -14.7700     6.3940 o          1 OVU      -0.708000
     10 OAE        -13.1220   -17.6550     6.2440 oh         1 OVU      -0.750000
     11 CAF        -10.9090   -17.6340     7.2720 c6         1 OVU      -0.066400
     12 CAI        -11.0480   -18.4160     8.5640 c6         1 OVU       0.174300
     13 OAC         -9.8620   -19.1950     8.7440 oh         1 OVU      -0.678000
     14 H1         -11.2630   -17.7090    11.6850 ho         1 OVU       0.489000
     15 H2         -10.3140   -16.8700     9.8410 h1         1 OVU       0.046700
     16 H3         -12.5440   -15.7720    10.2780 h1         1 OVU       0.065700
     17 H4         -13.3350   -15.2620     7.9600 h1         1 OVU       0.090700
     18 H6         -13.1360   -17.2640     5.3440 ho         1 OVU       0.535000
     19 H7         -10.6870   -18.3150     6.4490 hc         1 OVU       0.063200
     20 H8         -10.0680   -16.9460     7.3780 hc         1 OVU       0.063200
     21 H9         -11.9160   -19.0820     8.5200 h1         1 OVU       0.065700
     22 H10         -9.9150   -19.5940     9.6230 ho         1 OVU       0.437000
@<TRIPOS>BOND
     1     1     2 1   
     2     1    14 1   
     3     2     3 1   
     4     2    12 1   
     5     2    15 1   
     6     3     4 1   
     7     3     5 1   
     8     3    16 1   
     9     4     5 1   
    10     5     6 1   
    11     5    17 1   
    12     6     7 1   
    13     6    10 1   
    14     6    11 1   
    15     7     8 1   
    16     7     9 1   
    17    10    18 1   
    18    11    12 1   
    19    11    19 1   
    20    11    20 1   
    21    12    13 1   
    22    12    21 1   
    23    13    22 1   
@<TRIPOS>SUBSTRUCTURE
     1 OVU         1 TEMP              0 ****  ****    0 ROOT
