@<TRIPOS>MOLECULE
OVU
   22    23     1     0     0
SMALL
No Charge or Current Charge


@<TRIPOS>ATOM
      1 OAD        -11.2890   -18.1880    10.9900 oh         1 OVU      -0.738000
      2 CAJ        -11.1680   -17.4860     9.7340 c6         1 OVU       0.146300
      3 CAK        -12.3770   -16.5490     9.5340 cx         1 OVU       0.045300
      4 OAG        -13.5880   -17.1390     9.0120 op         1 OVU      -0.455000
      5 CAL        -12.8580   -16.2300     8.1390 cx         1 OVU       0.150300
      6 CAM        -12.1440   -16.8340     6.8840 c6         1 OVU       0.036000
      7 CAH        -11.6610   -15.6490     5.9510 c          1 OVU       0.696000
      8 OAA        -12.1500   -15.6460     4.8260 o          1 OVU      -0.708000
      9 OAB        -11.2760   -14.6180     6.4840 o          1 OVU      -0.708000
     10 OAE        -13.1140   -17.6340     6.1440 oh         1 OVU      -0.750000
     11 CAF        -10.9030   -17.7300     7.2200 c6         1 OVU      -0.066400
     12 CAI        -11.0350   -18.4970     8.5550 c6         1 OVU       0.174300
     13 OAC         -9.8890   -19.3340     8.7670 oh         1 OVU      -0.678000
     14 H1         -11.4430   -17.5080    11.6860 ho         1 OVU       0.489000
     15 H2         -10.2690   -16.8500     9.7470 h1         1 OVU       0.046700
     16 H3         -12.5200   -15.7950    10.3080 h1         1 OVU       0.065700
     17 H4         -13.3610   -15.2770     7.9670 h1         1 OVU       0.090700
     18 H6         -13.1680   -17.1580     5.2720 ho         1 OVU       0.535000
     19 H7         -10.7150   -18.4350     6.3990 hc         1 OVU       0.063200
     20 H8         -10.0050   -17.0990     7.2750 hc         1 OVU       0.063200
     21 H9         -11.9450   -19.1160     8.5150 h1         1 OVU       0.065700
     22 H10         -9.8930   -19.5050     9.7370 ho         1 OVU       0.437000
@<TRIPOS>BOND
     1     1     2 1   
     2     1    14 1   
     3     2     3 1   
     4     2    12 1   
     5     2    15 1   
     6     3     4 1   
     7     3     5 1   
     8     3    16 1   
     9     4     5 1   
    10     5     6 1   
    11     5    17 1   
    12     6     7 1   
    13     6    10 1   
    14     6    11 1   
    15     7     8 1   
    16     7     9 1   
    17    10    18 1   
    18    11    12 1   
    19    11    19 1   
    20    11    20 1   
    21    12    13 1   
    22    12    21 1   
    23    13    22 1   
@<TRIPOS>SUBSTRUCTURE
     1 OVU         1 TEMP              0 ****  ****    0 ROOT
