@<TRIPOS>MOLECULE
OVV
   17    17     1     0     0
SMALL
bcc


@<TRIPOS>ATOM
      1 C01          2.9230    -1.5040     0.0060 c3         1 OVV      -0.030800
      2 C02          1.8380    -0.4660    -0.0130 ca         1 OVV      -0.121300
      3 C03          2.1490     0.8920    -0.0320 ca         1 OVV      -0.155000
      4 C04          1.1410     1.8470    -0.0230 ca         1 OVV      -0.166000
      5 C05         -0.1910     1.4580     0.0030 ca         1 OVV      -0.105000
      6 C06         -0.5290     0.1070     0.0190 ca         1 OVV      -0.134600
      7 C07          0.4950    -0.8360     0.0100 ca         1 OVV      -0.101000
      8 C08         -1.9880    -0.3320     0.0430 c          1 OVV       0.923200
      9 O09         -2.2040    -1.5590     0.0760 o          1 OVV      -0.828800
     10 O10         -2.8440     0.5740     0.0280 o          1 OVV      -0.828800
     11 H1           3.2170    -1.7480     1.0300 hc         1 OVV       0.023033
     12 H2           2.5990    -2.4310    -0.4660 hc         1 OVV       0.023033
     13 H3           3.8190    -1.1590    -0.5110 hc         1 OVV       0.023033
     14 H4           3.1870     1.2060    -0.0580 ha         1 OVV       0.096000
     15 H5           1.3960     2.8990    -0.0400 ha         1 OVV       0.100000
     16 H6          -0.9740     2.2040     0.0060 ha         1 OVV       0.142000
     17 H7           0.2380    -1.8890     0.0190 ha         1 OVV       0.142000
@<TRIPOS>BOND
     1     1     2 1   
     2     1    11 1   
     3     1    12 1   
     4     1    13 1   
     5     2     3 ar  
     6     2     7 ar  
     7     3     4 ar  
     8     3    14 1   
     9     4     5 ar  
    10     4    15 1   
    11     5     6 ar  
    12     5    16 1   
    13     6     7 ar  
    14     6     8 1   
    15     7    17 1   
    16     8     9 1   
    17     8    10 1   
@<TRIPOS>SUBSTRUCTURE
     1 OVV         1 TEMP              0 ****  ****    0 ROOT
