@<TRIPOS>MOLECULE
OVV
   17    17     1     0     0
SMALL
No Charge or Current Charge


@<TRIPOS>ATOM
      1 C01          2.9450    -1.5150     0.0050 c3         1 OVV      -0.030800
      2 C02          1.8430    -0.4660    -0.0030 ca         1 OVV      -0.121300
      3 C03          2.1670     0.9010    -0.0320 ca         1 OVV      -0.137000
      4 C04          1.1480     1.8660    -0.0360 ca         1 OVV      -0.148000
      5 C05         -0.2000     1.4710    -0.0100 ca         1 OVV      -0.087000
      6 C06         -0.5500     0.1010     0.0210 ca         1 OVV      -0.134600
      7 C07          0.4900    -0.8600     0.0250 ca         1 OVV      -0.083000
      8 C08         -2.0090    -0.3310     0.0510 c          1 OVV       0.712600
      9 O09         -2.2670    -1.5260     0.0780 o          1 OVV      -0.723500
     10 O10         -2.8760     0.5330     0.0480 o          1 OVV      -0.723500
     11 H1           3.1950    -1.8100     1.0310 hc         1 OVV       0.023033
     12 H2           2.6410    -2.4180    -0.5390 hc         1 OVV       0.023033
     13 H3           3.8600    -1.1400    -0.4690 hc         1 OVV       0.023033
     14 H4           3.2070     1.2180    -0.0510 ha         1 OVV       0.078000
     15 H5           1.4030     2.9230    -0.0590 ha         1 OVV       0.082000
     16 H6          -0.9740     2.2370    -0.0140 ha         1 OVV       0.124000
     17 H7           0.2490    -1.9210     0.0510 ha         1 OVV       0.124000
@<TRIPOS>BOND
     1     1     2 1   
     2     1    11 1   
     3     1    12 1   
     4     1    13 1   
     5     2     3 ar  
     6     2     7 ar  
     7     3     4 ar  
     8     3    14 1   
     9     4     5 ar  
    10     4    15 1   
    11     5     6 ar  
    12     5    16 1   
    13     6     7 ar  
    14     6     8 1   
    15     7    17 1   
    16     8     9 1   
    17     8    10 1   
@<TRIPOS>SUBSTRUCTURE
     1 OVV         1 TEMP              0 ****  ****    0 ROOT
