@<TRIPOS>MOLECULE
OVW
   85    86     1     0     0
SMALL
No Charge or Current Charge


@<TRIPOS>ATOM
      1 N            0.2110     0.4400   -29.0920 n8         1 OVW      -1.043200
      2 CA          -1.2760     0.4960   -28.8150 c3         1 OVW       0.113500
      3 CB          -2.0800     0.5370   -30.1460 c3         1 OVW      -0.066400
      4 C           -1.8690    -0.6140   -27.8720 c          1 OVW       0.587100
      5 O           -2.8370    -0.4020   -27.1580 o          1 OVW      -0.549100
      6 CG          -1.8010     1.7490   -31.0830 c3         1 OVW      -0.053700
      7 CD1         -2.1440     3.1080   -30.4280 c3         1 OVW      -0.090100
      8 CD2         -2.5510     1.5870   -32.4260 c3         1 OVW      -0.090100
      9 C1          -5.9220    -4.6390   -28.0910 c6         1 OVW       0.156600
     10 C13        -10.5200    -4.7490   -23.9400 cc         1 OVW       0.209300
     11 C14         -9.3810    -4.0050   -23.9440 cd         1 OVW      -0.220000
     12 C15        -10.7810    -6.0790   -23.2780 c3         1 OVW      -0.093700
     13 C16         -9.5420    -6.7070   -22.5980 c3         1 OVW      -0.076400
     14 C17         -9.8400    -8.0750   -21.9450 c3         1 OVW      -0.075400
     15 C18         -8.6020    -8.7010   -21.2670 c3         1 OVW      -0.075400
     16 C19         -8.8980   -10.0690   -20.6130 c3         1 OVW      -0.075400
     17 C2          -6.6750    -3.2770   -28.0820 c6         1 OVW      -0.085700
     18 C20         -7.6570   -10.6960   -19.9370 c3         1 OVW      -0.073400
     19 C21         -7.9330   -12.0300   -19.2040 c3         1 OVW      -0.072400
     20 C22         -8.3540   -13.1910   -20.1300 c3         1 OVW      -0.089100
     21 C3          -5.7490    -2.1380   -28.6370 c6         1 OVW       0.138300
     22 C4          -5.0640    -2.5420   -29.9860 c6         1 OVW       0.125300
     23 C5          -4.4350    -3.9720   -29.9220 c6         1 OVW       0.176300
     24 C6          -3.0550    -4.0700   -29.1800 c3         1 OVW       0.175600
     25 C9          -8.8600    -1.7610   -25.0520 c3         1 OVW       0.081600
     26 N10         -9.7160    -2.9070   -24.7020 na         1 OVW       0.125800
     27 N11        -11.0170    -2.9990   -25.1270 nd         1 OVW      -0.206800
     28 N12        -11.4980    -4.1230   -24.6590 nc         1 OVW      -0.366000
     29 N3S         -1.2150    -1.8090   -27.8850 ns         1 OVW      -0.626300
     30 O1S         -0.7140    -4.2560   -27.5260 o          1 OVW      -0.534500
     31 O2S         -1.9200    -2.9250   -25.7060 o          1 OVW      -0.534500
     32 O3          -6.5090    -0.9390   -28.8860 oh         1 OVW      -0.671000
     33 O4          -6.0680    -2.4570   -31.0120 oh         1 OVW      -0.714000
     34 O5          -5.3940    -4.9340   -29.4020 os         1 OVW      -0.430000
     35 O6          -3.0930    -3.4440   -27.8840 os         1 OVW      -0.570700
     36 S           -1.6600    -3.2120   -27.1200 s6         1 OVW       1.437500
     37 H1           0.7310     0.2980   -28.2140 hn         1 OVW       0.424000
     38 H2           0.4470    -0.3770   -29.6670 hn         1 OVW       0.424000
     39 H4          -1.4720     1.4310   -28.2720 h1         1 OVW       0.097700
     40 H5          -3.1510     0.5310   -29.9060 hc         1 OVW       0.044700
     41 H6          -1.8890    -0.3930   -30.6950 hc         1 OVW       0.044700
     42 H7          -0.7290     1.7590   -31.3180 hc         1 OVW       0.060700
     43 H8          -1.5150     3.2960   -29.5500 hc         1 OVW       0.035700
     44 H9          -1.9760     3.9310   -31.1330 hc         1 OVW       0.035700
     45 H10         -3.1950     3.1370   -30.1140 hc         1 OVW       0.035700
     46 H11         -2.3120     2.4140   -33.1060 hc         1 OVW       0.035700
     47 H12         -2.2640     0.6510   -32.9210 hc         1 OVW       0.035700
     48 H13         -3.6360     1.5740   -32.2690 hc         1 OVW       0.035700
     49 H14         -6.6190    -5.4430   -27.8150 h1         1 OVW       0.057700
     50 H15         -5.1150    -4.6460   -27.3470 h1         1 OVW       0.057700
     51 H16         -8.4090    -4.1630   -23.4950 h4         1 OVW       0.165000
     52 H17        -11.5730    -5.9550   -22.5300 hc         1 OVW       0.058700
     53 H18        -11.1680    -6.7800   -24.0280 hc         1 OVW       0.058700
     54 H19         -8.7470    -6.8310   -23.3440 hc         1 OVW       0.038200
     55 H20         -9.1630    -6.0190   -21.8330 hc         1 OVW       0.038200
     56 H21        -10.6360    -7.9520   -21.2000 hc         1 OVW       0.039700
     57 H22        -10.2190    -8.7640   -22.7090 hc         1 OVW       0.039700
     58 H23         -7.8060    -8.8240   -22.0120 hc         1 OVW       0.036700
     59 H24         -8.2220    -8.0110   -20.5030 hc         1 OVW       0.036700
     60 H25         -9.6930    -9.9460   -19.8660 hc         1 OVW       0.038700
     61 H26         -9.2820   -10.7510   -21.3810 hc         1 OVW       0.038700
     62 H27         -7.5490    -3.3780   -28.7400 hc         1 OVW       0.080700
     63 H28         -6.8730   -10.8530   -20.6880 hc         1 OVW       0.036200
     64 H29         -7.2530    -9.9810   -19.2090 hc         1 OVW       0.036200
     65 H30         -8.7090   -11.8750   -18.4440 hc         1 OVW       0.036700
     66 H31         -7.0240   -12.3270   -18.6670 hc         1 OVW       0.036700
     67 H32         -8.4490   -14.1190   -19.5540 hc         1 OVW       0.030700
     68 H33         -9.3210   -12.9890   -20.6040 hc         1 OVW       0.030700
     69 H34         -7.6060   -13.3520   -20.9160 hc         1 OVW       0.030700
     70 H35         -4.9700    -1.9350   -27.8890 h1         1 OVW       0.069700
     71 H36         -4.2640    -1.8190   -30.2020 h1         1 OVW       0.022700
     72 H37         -4.2220    -4.2720   -30.9580 h1         1 OVW       0.093700
     73 H38         -2.7740    -5.1280   -29.0980 h1         1 OVW       0.059700
     74 H39         -2.3110    -3.5780   -29.8220 h1         1 OVW       0.059700
     75 H40         -7.7230    -3.9350   -26.2950 hc         1 OVW       0.043700
     76 H41         -6.3880    -2.8590   -25.9480 hc         1 OVW       0.043700
     77 H42         -7.7250    -0.8980   -26.6530 hc         1 OVW       0.069200
     78 H43         -9.0330    -1.9380   -27.2090 hc         1 OVW       0.069200
     79 H44         -8.0630    -1.6780   -24.3030 h1         1 OVW       0.065200
     80 H45         -9.4680    -0.8500   -24.9870 h1         1 OVW       0.065200
     81 H46         -0.4310    -1.9560   -28.4930 hn         1 OVW       0.342500
     82 H47         -6.0090    -0.1950   -28.4820 ho         1 OVW       0.453000
     83 H48         -6.6950    -1.7930   -30.6260 ho         1 OVW       0.523000
     84 C7          -7.2270    -3.0180   -26.6370 c3         1 OVW      -0.066400
     85 C8          -8.2330    -1.8490   -26.4640 c3         1 OVW      -0.090400
@<TRIPOS>BOND
     1     1     2 1   
     2     1    37 1   
     3     1    38 1   
     4     2     3 1   
     5     2     4 1   
     6     2    39 1   
     7     3     6 1   
     8     3    40 1   
     9     3    41 1   
    10     4     5 2   
    11     4    29 1   
    12     6     7 1   
    13     6     8 1   
    14     6    42 1   
    15     7    43 1   
    16     7    44 1   
    17     7    45 1   
    18     8    46 1   
    19     8    47 1   
    20     8    48 1   
    21     9    17 1   
    22     9    34 1   
    23     9    49 1   
    24     9    50 1   
    25    10    11 2   
    26    10    12 1   
    27    10    28 1   
    28    11    26 1   
    29    11    51 1   
    30    12    13 1   
    31    12    52 1   
    32    12    53 1   
    33    13    14 1   
    34    13    54 1   
    35    13    55 1   
    36    14    15 1   
    37    14    56 1   
    38    14    57 1   
    39    15    16 1   
    40    15    58 1   
    41    15    59 1   
    42    16    18 1   
    43    16    60 1   
    44    16    61 1   
    45    17    21 1   
    46    17    62 1   
    47    17    84 1   
    48    18    19 1   
    49    18    63 1   
    50    18    64 1   
    51    19    20 1   
    52    19    65 1   
    53    19    66 1   
    54    20    67 1   
    55    20    68 1   
    56    20    69 1   
    57    21    22 1   
    58    21    32 1   
    59    21    70 1   
    60    22    23 1   
    61    22    33 1   
    62    22    71 1   
    63    23    24 1   
    64    23    34 1   
    65    23    72 1   
    66    24    35 1   
    67    24    73 1   
    68    24    74 1   
    69    25    26 1   
    70    25    79 1   
    71    25    80 1   
    72    25    85 1   
    73    26    27 1   
    74    27    28 2   
    75    29    36 1   
    76    29    81 1   
    77    30    36 2   
    78    31    36 2   
    79    32    82 1   
    80    33    83 1   
    81    35    36 1   
    82    75    84 1   
    83    76    84 1   
    84    77    85 1   
    85    78    85 1   
    86    84    85 1   
@<TRIPOS>SUBSTRUCTURE
     1 OVW         1 TEMP              0 ****  ****    0 ROOT
