@<TRIPOS>MOLECULE
OVW
   85    86     1     0     0
SMALL
abcg2


@<TRIPOS>ATOM
      1 N            0.2390     0.0440   -29.4150 n8         1 OVW      -1.043200
      2 CA          -1.0870     0.2430   -28.8970 c3         1 OVW       0.113500
      3 CB          -2.0350     0.7210   -30.0040 c3         1 OVW      -0.066400
      4 C           -1.7580    -0.9420   -28.2010 c          1 OVW       0.587100
      5 O           -2.7450    -0.8200   -27.5120 o          1 OVW      -0.549100
      6 CG          -1.6070     2.0150   -30.6960 c3         1 OVW      -0.053700
      7 CD1         -1.4960     3.1760   -29.7140 c3         1 OVW      -0.090100
      8 CD2         -2.5980     2.3430   -31.8090 c3         1 OVW      -0.090100
      9 C1          -6.2290    -4.4560   -28.6250 c6         1 OVW       0.156600
     10 C13        -10.3770    -5.3620   -24.4040 cc         1 OVW       0.209300
     11 C14         -9.3980    -4.4140   -24.2240 cd         1 OVW      -0.220000
     12 C15        -10.5280    -6.7130   -23.7910 c3         1 OVW      -0.093700
     13 C16         -9.5370    -6.9850   -22.6660 c3         1 OVW      -0.076400
     14 C17         -9.7390    -8.3570   -22.0350 c3         1 OVW      -0.075400
     15 C18         -8.7480    -8.6500   -20.9160 c3         1 OVW      -0.075400
     16 C19         -8.9590   -10.0140   -20.2700 c3         1 OVW      -0.075400
     17 C2          -6.8280    -3.0820   -28.3310 c6         1 OVW      -0.085700
     18 C20         -7.9540   -10.3060   -19.1620 c3         1 OVW      -0.073400
     19 C21         -8.1730   -11.6340   -18.4430 c3         1 OVW      -0.072400
     20 C22         -7.9880   -12.8580   -19.3320 c3         1 OVW      -0.089100
     21 C3          -5.7300    -2.0490   -28.5450 c6         1 OVW       0.138300
     22 C4          -5.1160    -2.1880   -29.9470 c6         1 OVW       0.125300
     23 C5          -4.7050    -3.6230   -30.2790 c6         1 OVW       0.176300
     24 C6          -3.3030    -3.9880   -29.8240 c3         1 OVW       0.175600
     25 C9          -9.0850    -2.1350   -25.2580 c3         1 OVW       0.081600
     26 N10         -9.7670    -3.3960   -25.0210 na         1 OVW       0.125800
     27 N11        -10.8850    -3.6800   -25.6570 nd         1 OVW      -0.206800
     28 N12        -11.2630    -4.8590   -25.2920 nc         1 OVW      -0.366000
     29 N3S         -1.1800    -2.1680   -28.4460 ns         1 OVW      -0.626300
     30 O1S         -0.8080    -4.6020   -28.3170 o          1 OVW      -0.534500
     31 O2S         -1.9170    -3.4670   -26.3760 o          1 OVW      -0.534500
     32 O3          -6.2520    -0.7410   -28.4060 oh         1 OVW      -0.671000
     33 O4          -6.0460    -1.7910   -30.9270 oh         1 OVW      -0.714000
     34 O5          -5.6860    -4.5640   -29.9250 os         1 OVW      -0.430000
     35 O6          -3.1510    -3.7710   -28.4020 os         1 OVW      -0.570700
     36 S           -1.7030    -3.6040   -27.7880 s6         1 OVW       1.437500
     37 H1           0.9020    -0.2860   -28.7290 hn         1 OVW       0.424000
     38 H2           0.2760    -0.5360   -30.2420 hn         1 OVW       0.424000
     39 H4          -1.0380     1.0110   -28.1200 h1         1 OVW       0.097700
     40 H5          -3.0330     0.8610   -29.5800 hc         1 OVW       0.044700
     41 H6          -2.1240    -0.0750   -30.7540 hc         1 OVW       0.044700
     42 H7          -0.6250     1.8540   -31.1510 hc         1 OVW       0.060700
     43 H8          -0.7280     3.0060   -28.9580 hc         1 OVW       0.035700
     44 H9          -1.2360     4.0990   -30.2340 hc         1 OVW       0.035700
     45 H10         -2.4450     3.3430   -29.1980 hc         1 OVW       0.035700
     46 H11         -2.3060     3.2500   -32.3400 hc         1 OVW       0.035700
     47 H12         -2.6610     1.5360   -32.5410 hc         1 OVW       0.035700
     48 H13         -3.6010     2.5040   -31.4070 hc         1 OVW       0.035700
     49 H14         -7.0120    -5.2140   -28.5660 h1         1 OVW       0.057700
     50 H15         -5.4860    -4.7050   -27.8560 h1         1 OVW       0.057700
     51 H16         -8.5120    -4.3830   -23.6130 h4         1 OVW       0.165000
     52 H17        -11.5490    -6.8180   -23.4120 hc         1 OVW       0.058700
     53 H18        -10.4180    -7.4780   -24.5660 hc         1 OVW       0.058700
     54 H19         -8.5140    -6.9110   -23.0490 hc         1 OVW       0.038200
     55 H20         -9.6340    -6.2130   -21.8970 hc         1 OVW       0.038200
     56 H21        -10.7600    -8.4280   -21.6450 hc         1 OVW       0.039700
     57 H22         -9.6540    -9.1290   -22.8070 hc         1 OVW       0.039700
     58 H23         -7.7270    -8.5900   -21.3090 hc         1 OVW       0.036700
     59 H24         -8.8230    -7.8700   -20.1500 hc         1 OVW       0.036700
     60 H25         -9.9750   -10.0690   -19.8620 hc         1 OVW       0.038700
     61 H26         -8.9020   -10.7870   -21.0430 hc         1 OVW       0.038700
     62 H27         -7.6400    -2.9080   -29.0460 hc         1 OVW       0.080700
     63 H28         -6.9400   -10.2840   -19.5800 hc         1 OVW       0.036200
     64 H29         -7.9940    -9.4950   -18.4280 hc         1 OVW       0.036200
     65 H30         -9.1760   -11.6470   -18.0040 hc         1 OVW       0.036700
     66 H31         -7.4750   -11.6970   -17.6030 hc         1 OVW       0.036700
     67 H32         -8.0690   -13.7800   -18.7550 hc         1 OVW       0.030700
     68 H33         -8.7350   -12.9070   -20.1250 hc         1 OVW       0.030700
     69 H34         -7.0050   -12.8520   -19.8070 hc         1 OVW       0.030700
     70 H35         -4.9520    -2.2240   -27.7950 h1         1 OVW       0.069700
     71 H36         -4.2170    -1.5520   -29.9960 h1         1 OVW       0.022700
     72 H37         -4.6270    -3.6860   -31.3710 h1         1 OVW       0.093700
     73 H38         -3.0910    -5.0340   -30.0470 h1         1 OVW       0.059700
     74 H39         -2.5950    -3.3620   -30.3750 h1         1 OVW       0.059700
     75 H40         -7.8260    -4.0800   -26.7260 hc         1 OVW       0.043700
     76 H41         -6.5940    -2.9690   -26.1820 hc         1 OVW       0.043700
     77 H42         -8.0790    -1.0380   -26.7610 hc         1 OVW       0.069200
     78 H43         -9.2820    -2.1390   -27.3940 hc         1 OVW       0.069200
     79 H44         -8.3120    -2.0440   -24.4940 h1         1 OVW       0.065200
     80 H45         -9.8020    -1.3300   -25.0970 h1         1 OVW       0.065200
     81 H46         -0.3330    -2.2190   -29.0010 hn         1 OVW       0.342500
     82 H47         -5.5240    -0.1420   -28.2090 ho         1 OVW       0.453000
     83 H48         -6.4680    -0.9840   -30.6080 ho         1 OVW       0.523000
     84 C7          -7.4030    -3.0870   -26.9110 c3         1 OVW      -0.066400
     85 C8          -8.4840    -2.0430   -26.6530 c3         1 OVW      -0.090400
@<TRIPOS>BOND
     1     1     2 1   
     2     1    37 1   
     3     1    38 1   
     4     2     3 1   
     5     2     4 1   
     6     2    39 1   
     7     3     6 1   
     8     3    40 1   
     9     3    41 1   
    10     4     5 2   
    11     4    29 1   
    12     6     7 1   
    13     6     8 1   
    14     6    42 1   
    15     7    43 1   
    16     7    44 1   
    17     7    45 1   
    18     8    46 1   
    19     8    47 1   
    20     8    48 1   
    21     9    17 1   
    22     9    34 1   
    23     9    49 1   
    24     9    50 1   
    25    10    11 2   
    26    10    12 1   
    27    10    28 1   
    28    11    26 1   
    29    11    51 1   
    30    12    13 1   
    31    12    52 1   
    32    12    53 1   
    33    13    14 1   
    34    13    54 1   
    35    13    55 1   
    36    14    15 1   
    37    14    56 1   
    38    14    57 1   
    39    15    16 1   
    40    15    58 1   
    41    15    59 1   
    42    16    18 1   
    43    16    60 1   
    44    16    61 1   
    45    17    21 1   
    46    17    62 1   
    47    17    84 1   
    48    18    19 1   
    49    18    63 1   
    50    18    64 1   
    51    19    20 1   
    52    19    65 1   
    53    19    66 1   
    54    20    67 1   
    55    20    68 1   
    56    20    69 1   
    57    21    22 1   
    58    21    32 1   
    59    21    70 1   
    60    22    23 1   
    61    22    33 1   
    62    22    71 1   
    63    23    24 1   
    64    23    34 1   
    65    23    72 1   
    66    24    35 1   
    67    24    73 1   
    68    24    74 1   
    69    25    26 1   
    70    25    79 1   
    71    25    80 1   
    72    25    85 1   
    73    26    27 1   
    74    27    28 2   
    75    29    36 1   
    76    29    81 1   
    77    30    36 2   
    78    31    36 2   
    79    32    82 1   
    80    33    83 1   
    81    35    36 1   
    82    75    84 1   
    83    76    84 1   
    84    77    85 1   
    85    78    85 1   
    86    84    85 1   
@<TRIPOS>SUBSTRUCTURE
     1 OVW         1 TEMP              0 ****  ****    0 ROOT
