@<TRIPOS>MOLECULE
OVX
   42    45     1     0     0
SMALL
abcg2


@<TRIPOS>ATOM
      1 N1           7.2090    -0.9430    21.8160 n          1 OVX      -0.412800
      2 C4          11.3010    -0.7000    22.7010 ca         1 OVX      -0.042000
      3 C5          12.1340    -0.7990    21.5920 ca         1 OVX      -0.089000
      4 C6           9.1700    -1.9400    22.8180 c6         1 OVX       0.094000
      5 C7           7.6810    -1.7030    22.9620 c6         1 OVX       0.078000
      6 C8           7.7950     0.3800    21.7250 c6         1 OVX       0.024000
      7 C10          6.4170    -1.5060    20.8750 c          1 OVX       0.624700
      8 C13          5.1780     0.8090    17.5560 ca         1 OVX       0.379900
      9 C15          3.6820     2.2120    18.9420 ca         1 OVX      -0.075000
     10 C17          3.5500     1.7770    21.3100 ca         1 OVX      -0.081000
     11 O1           6.0580    -2.6830    20.9230 o          1 OVX      -0.583100
     12 C11          5.9600    -0.6250    19.7500 ca         1 OVX      -0.187600
     13 C19          5.0190     0.4200    19.9540 ca         1 OVX       0.012000
     14 C18          4.4580     0.7520    21.2100 ca         1 OVX      -0.114000
     15 C16          3.1590     2.5150    20.1720 ca         1 OVX      -0.111000
     16 C14          4.6180     1.1610    18.8080 ca         1 OVX      -0.104000
     17 N2           6.0410    -0.1670    17.3860 nb         1 OVX      -0.663000
     18 C12          6.4170    -0.8760    18.4800 ca         1 OVX       0.369900
     19 C9           9.2940     0.4150    21.9910 c          1 OVX       0.551000
     20 O            9.9080     1.4510    21.7460 o          1 OVX      -0.543000
     21 N            9.8810    -0.6860    22.5160 n          1 OVX      -0.248400
     22 C           13.5060    -0.8360    21.7930 ca         1 OVX       0.130000
     23 CL          14.5640    -0.9560    20.4030 cl         1 OVX      -0.204000
     24 C3          11.8290    -0.6480    23.9850 ca         1 OVX      -0.106000
     25 C2          13.2070    -0.6940    24.1620 ca         1 OVX      -0.096000
     26 C1          14.0580    -0.7860    23.0660 ca         1 OVX      -0.099000
     27 H1          11.7150    -0.8440    20.5970 ha         1 OVX       0.140000
     28 H2           9.3670    -2.6610    22.0200 h1         1 OVX       0.059200
     29 H3           9.5710    -2.3420    23.7480 h1         1 OVX       0.059200
     30 H4           7.4710    -1.1300    23.8680 h1         1 OVX       0.075700
     31 H5           7.1530    -2.6500    23.0060 h1         1 OVX       0.075700
     32 H6           7.6470     0.7950    20.7330 h1         1 OVX       0.084700
     33 H7           7.3290     1.0590    22.4460 h1         1 OVX       0.084700
     34 H9           3.3870     2.7670    18.0590 ha         1 OVX       0.121000
     35 H10          3.1250     2.0230    22.2750 ha         1 OVX       0.118000
     36 H11          4.7460     0.1950    22.0910 ha         1 OVX       0.124000
     37 H12          2.4420     3.3190    20.2770 ha         1 OVX       0.120000
     38 H13          7.1300    -1.6740    18.3080 h4         1 OVX       0.031100
     39 H14         11.1640    -0.5710    24.8350 ha         1 OVX       0.123000
     40 H15         13.6260    -0.6520    25.1590 ha         1 OVX       0.122000
     41 H16         15.1310    -0.8190    23.1980 ha         1 OVX       0.132000
     42 H8           4.8830     1.3720    16.6750 h4         1 OVX       0.024100
@<TRIPOS>BOND
     1     1     5 1   
     2     1     6 1   
     3     1     7 1   
     4     2     3 ar  
     5     2    21 1   
     6     2    24 ar  
     7     3    22 ar  
     8     3    27 1   
     9     4     5 1   
    10     4    21 1   
    11     4    28 1   
    12     4    29 1   
    13     5    30 1   
    14     5    31 1   
    15     6    19 1   
    16     6    32 1   
    17     6    33 1   
    18     7    11 2   
    19     7    12 1   
    20     8    16 ar  
    21     8    17 ar  
    22     8    42 1   
    23     9    15 ar  
    24     9    16 ar  
    25     9    34 1   
    26    10    14 ar  
    27    10    15 ar  
    28    10    35 1   
    29    12    13 ar  
    30    12    18 ar  
    31    13    14 ar  
    32    13    16 ar  
    33    14    36 1   
    34    15    37 1   
    35    17    18 ar  
    36    18    38 1   
    37    19    20 2   
    38    19    21 1   
    39    22    23 1   
    40    22    26 ar  
    41    24    25 ar  
    42    24    39 1   
    43    25    26 ar  
    44    25    40 1   
    45    26    41 1   
@<TRIPOS>SUBSTRUCTURE
     1 OVX         1 TEMP              0 ****  ****    0 ROOT
