@<TRIPOS>MOLECULE
OVX
   42    45     1     0     0
SMALL
No Charge or Current Charge


@<TRIPOS>ATOM
      1 N1           7.1280    -1.0040    21.7520 n          1 OVX      -0.412800
      2 C4          11.3960    -0.8330    22.6620 ca         1 OVX      -0.042000
      3 C5          12.3140    -0.2530    21.7580 ca         1 OVX      -0.089000
      4 C6           9.1710    -1.9840    22.7690 c6         1 OVX       0.094000
      5 C7           7.6710    -1.6850    22.9470 c6         1 OVX       0.078000
      6 C8           7.8450     0.2670    21.4240 c6         1 OVX       0.024000
      7 C10          6.2460    -1.6440    20.8510 c          1 OVX       0.624700
      8 C13          4.7040     0.4890    17.5200 ca         1 OVX       0.379900
      9 C15          3.7920     2.2820    18.9090 ca         1 OVX      -0.075000
     10 C17          3.9780     2.1430    21.3300 ca         1 OVX      -0.081000
     11 O1           5.9480    -2.8230    20.9850 o          1 OVX      -0.583100
     12 C11          5.6470    -0.8330    19.7460 ca         1 OVX      -0.187600
     13 C19          4.9490     0.3860    19.9360 ca         1 OVX       0.012000
     14 C18          4.6700     0.9250    21.2110 ca         1 OVX      -0.114000
     15 C16          3.5460     2.8250    20.1810 ca         1 OVX      -0.111000
     16 C14          4.4820     1.0610    18.7870 ca         1 OVX      -0.104000
     17 N2           5.3330    -0.6950    17.3430 nb         1 OVX      -0.663000
     18 C12          5.7840    -1.3370    18.4440 ca         1 OVX       0.369900
     19 C9           9.3300     0.3690    21.8610 c          1 OVX       0.551000
     20 O            9.9190     1.4360    21.7300 o          1 OVX      -0.543000
     21 N            9.9760    -0.7860    22.3900 n          1 OVX      -0.248400
     22 C           13.6770    -0.1520    22.0800 ca         1 OVX       0.130000
     23 Cl          14.8060     0.5230    20.9110 cl         1 OVX      -0.204000
     24 C3          11.8640    -1.1760    23.9520 ca         1 OVX      -0.106000
     25 C2          13.2280    -1.0750    24.2760 ca         1 OVX      -0.096000
     26 C1          14.1400    -0.5750    23.3330 ca         1 OVX      -0.099000
     27 H1          11.9780     0.0960    20.7850 ha         1 OVX       0.140000
     28 H2           9.2870    -2.7360    21.9760 h1         1 OVX       0.059200
     29 H3           9.5480    -2.4360    23.6940 h1         1 OVX       0.059200
     30 H4           7.5300    -1.0370    23.8240 h1         1 OVX       0.075700
     31 H5           7.1310    -2.6200    23.1490 h1         1 OVX       0.075700
     32 H6           7.8440     0.4320    20.3380 h1         1 OVX       0.084700
     33 H7           7.3260     1.1120    21.8960 h1         1 OVX       0.084700
     34 H9           3.4380     2.8060    18.0230 ha         1 OVX       0.121000
     35 H10          3.7720     2.5560    22.3160 ha         1 OVX       0.118000
     36 H11          4.9710     0.4090    22.1190 ha         1 OVX       0.124000
     37 H12          3.0100     3.7670    20.2770 ha         1 OVX       0.120000
     38 H13          6.3010    -2.2800    18.2660 h4         1 OVX       0.031100
     39 H14         11.1750    -1.5160    24.7210 ha         1 OVX       0.123000
     40 H15         13.5760    -1.3680    25.2650 ha         1 OVX       0.122000
     41 H16         15.1950    -0.4910    23.5820 ha         1 OVX       0.132000
     42 H8           4.3520     0.9850    16.6160 h4         1 OVX       0.024100
@<TRIPOS>BOND
     1     1     5 1   
     2     1     6 1   
     3     1     7 1   
     4     2     3 ar  
     5     2    21 1   
     6     2    24 ar  
     7     3    22 ar  
     8     3    27 1   
     9     4     5 1   
    10     4    21 1   
    11     4    28 1   
    12     4    29 1   
    13     5    30 1   
    14     5    31 1   
    15     6    19 1   
    16     6    32 1   
    17     6    33 1   
    18     7    11 2   
    19     7    12 1   
    20     8    16 ar  
    21     8    17 ar  
    22     8    42 1   
    23     9    15 ar  
    24     9    16 ar  
    25     9    34 1   
    26    10    14 ar  
    27    10    15 ar  
    28    10    35 1   
    29    12    13 ar  
    30    12    18 ar  
    31    13    14 ar  
    32    13    16 ar  
    33    14    36 1   
    34    15    37 1   
    35    17    18 ar  
    36    18    38 1   
    37    19    20 2   
    38    19    21 1   
    39    22    23 1   
    40    22    26 ar  
    41    24    25 ar  
    42    24    39 1   
    43    25    26 ar  
    44    25    40 1   
    45    26    41 1   
@<TRIPOS>SUBSTRUCTURE
     1 OVX         1 TEMP              0 ****  ****    0 ROOT
