@<TRIPOS>MOLECULE
OVY
   41    40     1     0     0
SMALL
bcc


@<TRIPOS>ATOM
      1 C01          0.3140     2.6500    -0.3050 c          1 OVY       0.670100
      2 C02          0.3710     3.8670     0.5850 c3         1 OVY      -0.180100
      3 C03          0.1960     0.1800    -0.2910 c3         1 OVY       0.067700
      4 C04          1.4050    -0.6790     0.1260 c3         1 OVY       0.115100
      5 C05          2.7410     0.0180    -0.1590 c3         1 OVY       0.079100
      6 C06          3.9430    -0.8120     0.3300 c3         1 OVY       0.114100
      7 C07          5.2440    -0.0500     0.1340 c3         1 OVY       0.100400
      8 C08         -1.1350    -0.5090     0.0420 c3         1 OVY       0.169100
      9 C09         -2.3150     0.3030    -0.5150 c3         1 OVY      -0.165700
     10 C10         -3.6260    -0.4140    -0.3720 ce         1 OVY       0.292300
     11 C11         -4.4170    -0.2620     0.9210 c          1 OVY       0.849300
     12 N01          0.2550     1.4740     0.3460 ns         1 OVY      -0.560900
     13 N02         -4.1330    -1.2040    -1.2290 n2         1 OVY      -0.426200
     14 O01          0.3440     2.7480    -1.5240 o          1 OVY      -0.617100
     15 O02          1.3500    -1.9520    -0.4850 oh         1 OVY      -0.581800
     16 O03          2.8770     0.3500    -1.5240 oh         1 OVY      -0.585800
     17 O04          3.7800    -1.2190     1.6690 oh         1 OVY      -0.564800
     18 O06         -1.2190    -0.6860     1.4310 oh         1 OVY      -0.680800
     19 O07         -5.6440    -0.3690     0.8880 o          1 OVY      -0.796300
     20 O08         -3.7080    -0.0420     1.9380 o          1 OVY      -0.796300
     21 O09         -3.3640    -1.3780    -2.3450 oh         1 OVY      -0.417500
     22 H03          1.3690     4.3040     0.5300 hc         1 OVY       0.053033
     23 H01         -0.3310     4.6190     0.2260 hc         1 OVY       0.053033
     24 H02          0.1520     3.6550     1.6300 hc         1 OVY       0.053033
     25 H05          0.2410     0.3450    -1.3700 h1         1 OVY       0.080700
     26 H06          1.3410    -0.8580     1.2020 h1         1 OVY       0.105700
     27 H08          2.7450     0.9700     0.3820 h1         1 OVY       0.071700
     28 H10          3.9860    -1.7380    -0.2570 h1         1 OVY       0.090700
     29 H12          5.3190     0.2840    -0.9060 h1         1 OVY       0.024200
     30 H13          5.2200     0.8570     0.7580 h1         1 OVY       0.024200
     31 H15         -1.1410    -1.4810    -0.4700 h1         1 OVY       0.044700
     32 H18         -2.3730     1.2610     0.0050 hc         1 OVY       0.055200
     33 H17         -2.1180     0.5200    -1.5660 hc         1 OVY       0.055200
     34 H04          0.1600     1.4870     1.3490 hn         1 OVY       0.322500
     35 H07          1.1780    -1.8440    -1.4270 ho         1 OVY       0.392000
     36 H09          3.0510    -0.4550    -2.0250 ho         1 OVY       0.396000
     37 H11          3.7950    -0.4370     2.2320 ho         1 OVY       0.392000
     38 H14          7.1350    -0.4010     0.3440 ho         1 OVY       0.395000
     39 H16         -2.1310    -0.4280     1.7210 ho         1 OVY       0.489000
     40 H19         -3.8750    -1.9880    -2.8870 ho         1 OVY       0.404000
     41 O05          6.3200    -0.8900     0.4850 oh         1 OVY      -0.587800
@<TRIPOS>BOND
     1     1     2 1   
     2     1    12 1   
     3     1    14 2   
     4     2    22 1   
     5     2    23 1   
     6     2    24 1   
     7     3     4 1   
     8     3     8 1   
     9     3    12 1   
    10     3    25 1   
    11     4     5 1   
    12     4    15 1   
    13     4    26 1   
    14     5     6 1   
    15     5    16 1   
    16     5    27 1   
    17     6     7 1   
    18     6    17 1   
    19     6    28 1   
    20     7    29 1   
    21     7    30 1   
    22     7    41 1   
    23     8     9 1   
    24     8    18 1   
    25     8    31 1   
    26     9    10 1   
    27     9    32 1   
    28     9    33 1   
    29    10    11 1   
    30    10    13 2   
    31    11    19 1   
    32    11    20 1   
    33    12    34 1   
    34    13    21 1   
    35    15    35 1   
    36    16    36 1   
    37    17    37 1   
    38    18    39 1   
    39    21    40 1   
    40    38    41 1   
@<TRIPOS>SUBSTRUCTURE
     1 OVY         1 TEMP              0 ****  ****    0 ROOT
