@<TRIPOS>MOLECULE
OVY
   41    40     1     0     0
SMALL
No Charge or Current Charge


@<TRIPOS>ATOM
      1 C01          0.3440     2.7600    -0.2740 c          1 OVY       0.603100
      2 C02          0.3640     3.9750     0.6460 c3         1 OVY      -0.180100
      3 C03          0.1850     0.2270    -0.2750 c3         1 OVY       0.067700
      4 C04          1.4180    -0.6530     0.1130 c3         1 OVY       0.138300
      5 C05          2.7860    -0.0320    -0.3160 c3         1 OVY       0.102300
      6 C06          4.0040    -0.6660     0.4280 c3         1 OVY       0.137300
      7 C07          5.3700    -0.0860    -0.0280 c3         1 OVY       0.123600
      8 C08         -1.1890    -0.4560     0.0240 c3         1 OVY       0.192300
      9 C09         -2.4020     0.3990    -0.4090 c3         1 OVY      -0.165700
     10 C10         -3.7070    -0.4040    -0.5160 ce         1 OVY       0.292300
     11 C11         -4.4430    -0.7360     0.7940 c          1 OVY       0.638700
     12 N01          0.2570     1.5520     0.3780 ns         1 OVY      -0.493900
     13 N02         -4.2510    -0.7540    -1.6590 n2         1 OVY      -0.327700
     14 O01          0.3990     2.8580    -1.4900 o          1 OVY      -0.617100
     15 O02          1.3150    -1.9630    -0.4990 oh         1 OVY      -0.704000
     16 O03          2.9120    -0.2350    -1.7340 oh         1 OVY      -0.708000
     17 O04          3.9080    -0.4370     1.8430 oh         1 OVY      -0.687000
     18 O06         -1.2950    -0.7360     1.4300 oh         1 OVY      -0.743000
     19 O07         -5.5350    -1.2960     0.7620 o          1 OVY      -0.691000
     20 O08         -3.8890    -0.4620     1.8560 o          1 OVY      -0.691000
     21 O09         -3.3610    -0.9900    -2.7250 oh         1 OVY      -0.555000
     22 H03          1.1820     3.8640     1.3670 hc         1 OVY       0.053033
     23 H01          0.4350     4.9210     0.0970 hc         1 OVY       0.053033
     24 H02         -0.5210     3.9480     1.2920 hc         1 OVY       0.053033
     25 H05          0.2290     0.3770    -1.3620 h1         1 OVY       0.080700
     26 H06          1.4170    -0.7440     1.2090 h1         1 OVY       0.105700
     27 H08          2.7840     1.0420    -0.0850 h1         1 OVY       0.071700
     28 H10          4.0120    -1.7460     0.2210 h1         1 OVY       0.090700
     29 H12          5.5770    -0.4110    -1.0570 h1         1 OVY       0.024200
     30 H13          5.3200     1.0120    -0.0270 h1         1 OVY       0.024200
     31 H15         -1.2320    -1.3930    -0.5490 h1         1 OVY       0.044700
     32 H18         -2.5300     1.2300     0.2950 hc         1 OVY       0.055200
     33 H17         -2.1750     0.8800    -1.3690 hc         1 OVY       0.055200
     34 H04          0.1820     1.5860     1.3880 hn         1 OVY       0.322500
     35 H07          0.7090    -2.4970     0.0660 ho         1 OVY       0.491000
     36 H09          2.3840    -1.0600    -1.8800 ho         1 OVY       0.495000
     37 H11          4.8550    -0.4560     2.1310 ho         1 OVY       0.491000
     38 H14          7.2690    -0.2340     0.4820 ho         1 OVY       0.494000
     39 H16         -2.2580    -0.6130     1.6780 ho         1 OVY       0.528000
     40 H19         -3.9360    -1.2360    -3.4890 ho         1 OVY       0.443000
     41 O05          6.4100    -0.5400     0.8610 oh         1 OVY      -0.710000
@<TRIPOS>BOND
     1     1     2 1   
     2     1    12 1   
     3     1    14 2   
     4     2    22 1   
     5     2    23 1   
     6     2    24 1   
     7     3     4 1   
     8     3     8 1   
     9     3    12 1   
    10     3    25 1   
    11     4     5 1   
    12     4    15 1   
    13     4    26 1   
    14     5     6 1   
    15     5    16 1   
    16     5    27 1   
    17     6     7 1   
    18     6    17 1   
    19     6    28 1   
    20     7    29 1   
    21     7    30 1   
    22     7    41 1   
    23     8     9 1   
    24     8    18 1   
    25     8    31 1   
    26     9    10 1   
    27     9    32 1   
    28     9    33 1   
    29    10    11 1   
    30    10    13 2   
    31    11    19 1   
    32    11    20 1   
    33    12    34 1   
    34    13    21 1   
    35    15    35 1   
    36    16    36 1   
    37    17    37 1   
    38    18    39 1   
    39    21    40 1   
    40    38    41 1   
@<TRIPOS>SUBSTRUCTURE
     1 OVY         1 TEMP              0 ****  ****    0 ROOT
