@<TRIPOS>MOLECULE
OVZ
   79    81     1     0     0
SMALL
No Charge or Current Charge


@<TRIPOS>ATOM
      1 C2          -6.9660    -4.0310   -28.1950 c6         1 OVZ      -0.080700
      2 C4          -4.9740    -3.4250   -29.7380 c6         1 OVZ       0.119300
      3 O4          -5.8210    -3.3240   -30.8980 oh         1 OVZ      -0.725000
      4 C5          -4.3990    -4.8760   -29.5570 c6         1 OVZ       0.170300
      5 C6          -2.9070    -4.8560   -29.1030 c3         1 OVZ       0.208600
      6 C7          -7.4120    -4.0330   -26.6950 c3         1 OVZ      -0.072400
      7 C8          -7.9650    -2.6930   -26.1450 c3         1 OVZ      -0.090400
      8 C9          -8.4670    -2.7690   -24.6830 c3         1 OVZ       0.079600
      9 N10         -9.6300    -3.6540   -24.4930 na         1 OVZ       0.125800
     10 C14         -9.6260    -4.9490   -24.0420 cc         1 OVZ      -0.194000
     11 C           -1.9370    -1.1870   -28.5140 c          1 OVZ       0.588100
     12 O           -2.8690    -1.0190   -27.7410 o          1 OVZ      -0.553100
     13 N           -0.1320    -0.0790   -30.0790 n8         1 OVZ      -1.041200
     14 CA          -1.5720    -0.1230   -29.6150 c3         1 OVZ       0.112500
     15 CB          -2.5330    -0.2680   -30.8290 c3         1 OVZ      -0.068400
     16 CG          -2.4790     0.8690   -31.8910 c3         1 OVZ      -0.052700
     17 CD1         -3.3700     0.5270   -33.1070 c3         1 OVZ      -0.090600
     18 CD2         -2.8580     2.2530   -31.3100 c3         1 OVZ      -0.090600
     19 C1          -6.5720    -5.4730   -28.6480 c6         1 OVZ       0.158600
     20 C13        -10.9470    -5.2950   -24.0580 cd         1 OVZ       0.192300
     21 C17        -12.1190    -8.9450   -24.4420 c3         1 OVZ       0.212100
     22 C18        -11.4200    -9.6420   -23.2770 ca         1 OVZ      -0.089300
     23 C19        -10.1380   -10.2010   -23.4510 ca         1 OVZ      -0.098500
     24 C20         -9.4920   -10.8440   -22.3800 ca         1 OVZ      -0.114000
     25 C21        -10.1240   -10.9320   -21.1280 ca         1 OVZ      -0.109000
     26 C22        -11.4020   -10.3770   -20.9480 ca         1 OVZ      -0.114000
     27 C23        -12.0480    -9.7340   -22.0190 ca         1 OVZ      -0.098500
     28 C3          -5.8050    -3.0120   -28.4840 c6         1 OVZ       0.139300
     29 N11        -10.8940    -3.2220   -24.7660 nc         1 OVZ      -0.210800
     30 N12        -11.6940    -4.2200   -24.5030 nd         1 OVZ      -0.366000
     31 N16        -11.5040    -7.6380   -24.7520 n7         1 OVZ      -0.877400
     32 N3S         -1.1330    -2.2870   -28.4660 ns         1 OVZ      -0.623300
     33 O1S         -0.3000    -4.6040   -27.9110 o          1 OVZ      -0.534500
     34 O2S         -1.3060    -3.1380   -26.0740 o          1 OVZ      -0.534500
     35 O3          -6.3370    -1.6910   -28.7000 oh         1 OVZ      -0.672000
     36 O5          -5.1450    -5.6410   -28.5680 os         1 OVZ      -0.439000
     37 O6          -2.7820    -4.0720   -27.9000 os         1 OVZ      -0.559700
     38 S           -1.2740    -3.6040   -27.4640 s6         1 OVZ       1.435500
     39 H1          -7.8520    -3.7420   -28.7770 hc         1 OVZ       0.073700
     40 H2          -4.1360    -2.7230   -29.8490 h1         1 OVZ       0.024700
     41 H3          -6.4290    -2.5760   -30.6790 ho         1 OVZ       0.526000
     42 H4          -4.4490    -5.4060   -30.5180 h1         1 OVZ       0.065700
     43 H5          -2.5630    -5.8870   -28.9440 h1         1 OVZ       0.062700
     44 H6          -2.3180    -4.4230   -29.9230 h1         1 OVZ       0.062700
     45 H7          -8.1870    -4.7980   -26.5650 hc         1 OVZ       0.047700
     46 H8          -6.5700    -4.3480   -26.0640 hc         1 OVZ       0.047700
     47 H9          -7.1780    -1.9310   -26.1860 hc         1 OVZ       0.066200
     48 H10         -8.7810    -2.3410   -26.7890 hc         1 OVZ       0.066200
     49 H11         -7.6530    -3.1180   -24.0360 h1         1 OVZ       0.068200
     50 H12         -8.7450    -1.7620   -24.3480 h1         1 OVZ       0.068200
     51 H13         -8.7350    -5.4980   -23.7680 h4         1 OVZ       0.173000
     52 H14        -11.0460    -6.9840   -22.7710 h1         1 OVZ       0.053200
     53 H15        -12.6130    -6.4410   -23.3760 h1         1 OVZ       0.053200
     54 H17          0.1090    -0.9260   -30.6080 hn         1 OVZ       0.423500
     55 H19         -1.7860     0.8380   -29.1270 h1         1 OVZ       0.098700
     56 H20         -3.5620    -0.3350   -30.4540 hc         1 OVZ       0.044700
     57 H21         -2.3280    -1.2280   -31.3200 hc         1 OVZ       0.044700
     58 H22         -1.4490     0.9400   -32.2640 hc         1 OVZ       0.060700
     59 H23         -3.2910     1.3030   -33.8780 hc         1 OVZ       0.036033
     60 H24         -3.0660    -0.4260   -33.5570 hc         1 OVZ       0.036033
     61 H25         -4.4230     0.4450   -32.8090 hc         1 OVZ       0.036033
     62 H26         -2.1450     2.5690   -30.5400 hc         1 OVZ       0.036033
     63 H27         -2.8510     3.0170   -32.0960 hc         1 OVZ       0.036033
     64 H28         -3.8600     2.2290   -30.8650 hc         1 OVZ       0.036033
     65 H29         -6.8930    -5.6470   -29.6860 h1         1 OVZ       0.059200
     66 H30         -7.0640    -6.2310   -28.0200 h1         1 OVZ       0.059200
     67 H31        -13.1850    -8.8190   -24.2060 h1         1 OVZ       0.037200
     68 H32        -12.0630    -9.6010   -25.3220 h1         1 OVZ       0.037200
     69 H33         -9.6430   -10.1330   -24.4170 ha         1 OVZ       0.116500
     70 H34         -8.5020   -11.2720   -22.5210 ha         1 OVZ       0.111000
     71 H35         -9.6240   -11.4290   -20.3000 ha         1 OVZ       0.111000
     72 H36        -11.8920   -10.4440   -19.9790 ha         1 OVZ       0.111000
     73 H37        -13.0370    -9.3060   -21.8690 ha         1 OVZ       0.116500
     74 H38         -5.1240    -3.0110   -27.6180 h1         1 OVZ       0.075700
     75 H39        -11.9880    -7.2500   -25.5720 hn         1 OVZ       0.416000
     76 H41         -0.3830    -2.4020   -29.1220 hn         1 OVZ       0.341500
     77 H42         -5.6420    -1.0580   -28.4100 ho         1 OVZ       0.456000
     78 C15        -11.5680    -6.6220   -23.6670 c3         1 OVZ       0.140500
     79 H16          0.5050    -0.0860   -29.2700 hn         1 OVZ       0.423500
@<TRIPOS>BOND
     1     1     6 1   
     2     1    19 1   
     3     1    28 1   
     4     1    39 1   
     5     2     3 1   
     6     2     4 1   
     7     2    28 1   
     8     2    40 1   
     9     3    41 1   
    10     4     5 1   
    11     4    36 1   
    12     4    42 1   
    13     5    37 1   
    14     5    43 1   
    15     5    44 1   
    16     6     7 1   
    17     6    45 1   
    18     6    46 1   
    19     7     8 1   
    20     7    47 1   
    21     7    48 1   
    22     8     9 1   
    23     8    49 1   
    24     8    50 1   
    25     9    10 1   
    26     9    29 1   
    27    10    20 2   
    28    10    51 1   
    29    11    12 2   
    30    11    14 1   
    31    11    32 1   
    32    13    14 1   
    33    13    54 1   
    34    13    79 1   
    35    14    15 1   
    36    14    55 1   
    37    15    16 1   
    38    15    56 1   
    39    15    57 1   
    40    16    17 1   
    41    16    18 1   
    42    16    58 1   
    43    17    59 1   
    44    17    60 1   
    45    17    61 1   
    46    18    62 1   
    47    18    63 1   
    48    18    64 1   
    49    19    36 1   
    50    19    65 1   
    51    19    66 1   
    52    20    30 1   
    53    20    78 1   
    54    21    22 1   
    55    21    31 1   
    56    21    67 1   
    57    21    68 1   
    58    22    23 ar  
    59    22    27 ar  
    60    23    24 ar  
    61    23    69 1   
    62    24    25 ar  
    63    24    70 1   
    64    25    26 ar  
    65    25    71 1   
    66    26    27 ar  
    67    26    72 1   
    68    27    73 1   
    69    28    35 1   
    70    28    74 1   
    71    29    30 2   
    72    31    75 1   
    73    31    78 1   
    74    32    38 1   
    75    32    76 1   
    76    33    38 2   
    77    34    38 2   
    78    35    77 1   
    79    37    38 1   
    80    52    78 1   
    81    53    78 1   
@<TRIPOS>SUBSTRUCTURE
     1 OVZ         1 TEMP              0 ****  ****    0 ROOT
