@<TRIPOS>MOLECULE
OVZ
   79    81     1     0     0
SMALL
bcc


@<TRIPOS>ATOM
      1 C2          -7.1460    -3.8800   -28.6210 c6         1 OVZ      -0.080700
      2 C4          -5.1520    -3.3130   -30.0750 c6         1 OVZ       0.096100
      3 O4          -5.9470    -3.0330   -31.2040 oh         1 OVZ      -0.602800
      4 C5          -4.7440    -4.7930   -30.1190 c6         1 OVZ       0.147100
      5 C6          -3.3080    -5.0200   -29.7090 c3         1 OVZ       0.185400
      6 C7          -7.4860    -4.1280   -27.1500 c3         1 OVZ      -0.072400
      7 C8          -7.7650    -2.8740   -26.3320 c3         1 OVZ      -0.090400
      8 C9          -8.1040    -3.1710   -24.8780 c3         1 OVZ       0.050300
      9 N10         -9.3000    -3.9830   -24.7320 na         1 OVZ       0.104400
     10 C14         -9.3880    -5.2960   -24.4630 cc         1 OVZ      -0.226600
     11 C           -2.1270    -1.5290   -28.5050 c          1 OVZ       0.655100
     12 O           -3.0930    -1.4640   -27.7780 o          1 OVZ      -0.553100
     13 N           -0.3040    -0.3920   -29.8510 n8         1 OVZ      -0.930800
     14 CA          -1.6480    -0.3450   -29.3470 c3         1 OVZ       0.112500
     15 CB          -2.6500    -0.1670   -30.4960 c3         1 OVZ      -0.068400
     16 CG          -2.4310     1.0840   -31.3480 c3         1 OVZ      -0.052700
     17 CD1         -3.4640     1.1080   -32.4700 c3         1 OVZ      -0.090600
     18 CD2         -2.5100     2.3590   -30.5160 c3         1 OVZ      -0.090600
     19 C1          -6.9220    -5.2120   -29.3510 c6         1 OVZ       0.135400
     20 C13        -10.7340    -5.5600   -24.5130 cd         1 OVZ       0.257600
     21 C17        -11.1420    -9.2520   -24.2990 c3         1 OVZ       0.212100
     22 C18        -11.0090    -9.5170   -22.8190 ca         1 OVZ      -0.089300
     23 C19         -9.8850    -9.0900   -22.1130 ca         1 OVZ      -0.116500
     24 C20         -9.7520    -9.3670   -20.7600 ca         1 OVZ      -0.132000
     25 C21        -10.7390   -10.0800   -20.0890 ca         1 OVZ      -0.127000
     26 C22        -11.8630   -10.5070   -20.7830 ca         1 OVZ      -0.132000
     27 C23        -11.9960   -10.2230   -22.1370 ca         1 OVZ      -0.116500
     28 C3          -5.9020    -2.9960   -28.7820 c6         1 OVZ       0.116100
     29 N11        -10.4920    -3.4630   -24.9420 nc         1 OVZ      -0.210800
     30 N12        -11.3660    -4.4060   -24.8110 nd         1 OVZ      -0.366000
     31 N16        -10.6050    -7.9610   -24.6760 n7         1 OVZ      -0.822200
     32 N3S         -1.4110    -2.6920   -28.6680 ns         1 OVZ      -0.690300
     33 O1S         -0.7100    -5.0320   -28.3160 o          1 OVZ      -0.605300
     34 O2S         -1.8860    -3.8470   -26.4430 o          1 OVZ      -0.605300
     35 O3          -6.2940    -1.6350   -28.7870 oh         1 OVZ      -0.609800
     36 O5          -5.5610    -5.5980   -29.3020 os         1 OVZ      -0.392600
     37 O6          -3.1430    -4.5340   -28.3560 os         1 OVZ      -0.536500
     38 S           -1.7110    -4.1090   -27.8430 s6         1 OVZ       1.577100
     39 H1          -7.9930    -3.3740   -29.0970 hc         1 OVZ       0.073700
     40 H2          -4.2410    -2.6970   -30.1060 h1         1 OVZ       0.024700
     41 H3          -6.3340    -2.1590   -31.0730 ho         1 OVZ       0.427000
     42 H4          -4.8050    -5.1230   -31.1680 h1         1 OVZ       0.065700
     43 H5          -3.0540    -6.0800   -29.7340 h1         1 OVZ       0.062700
     44 H6          -2.6530    -4.4850   -30.4000 h1         1 OVZ       0.062700
     45 H7          -8.3610    -4.7840   -27.1140 hc         1 OVZ       0.047700
     46 H8          -6.6670    -4.6910   -26.6860 hc         1 OVZ       0.047700
     47 H9          -6.8920    -2.2200   -26.3200 hc         1 OVZ       0.066200
     48 H10         -8.5760    -2.2990   -26.7860 hc         1 OVZ       0.066200
     49 H11         -7.2920    -3.7110   -24.3940 h1         1 OVZ       0.068200
     50 H12         -8.2600    -2.2460   -24.3230 h1         1 OVZ       0.068200
     51 H13         -8.5290    -5.9150   -24.2700 h4         1 OVZ       0.191000
     52 H14        -11.6560    -6.9530   -23.2060 h1         1 OVZ       0.053200
     53 H15        -12.4190    -6.8270   -24.7790 h1         1 OVZ       0.053200
     54 H17         -0.1710    -1.0490   -30.6080 hn         1 OVZ       0.368300
     55 H19         -1.7340     0.5130   -28.6730 h1         1 OVZ       0.098700
     56 H20         -3.6610    -0.1330   -30.0810 hc         1 OVZ       0.044700
     57 H21         -2.6060    -1.0530   -31.1400 hc         1 OVZ       0.044700
     58 H22         -1.4360     1.0260   -31.7990 hc         1 OVZ       0.060700
     59 H23         -3.3180     1.9700   -33.1230 hc         1 OVZ       0.036033
     60 H24         -3.4060     0.2100   -33.0870 hc         1 OVZ       0.036033
     61 H25         -4.4780     1.1670   -32.0660 hc         1 OVZ       0.036033
     62 H26         -1.7100     2.4230   -29.7780 hc         1 OVZ       0.036033
     63 H27         -2.4330     3.2420   -31.1530 hc         1 OVZ       0.036033
     64 H28         -3.4630     2.4190   -29.9840 hc         1 OVZ       0.036033
     65 H29         -7.2630    -5.1480   -30.3900 h1         1 OVZ       0.059200
     66 H30         -7.4900    -6.0110   -28.8720 h1         1 OVZ       0.059200
     67 H31        -12.1940    -9.3850   -24.5920 h1         1 OVZ       0.037200
     68 H32        -10.5780   -10.0130   -24.8450 h1         1 OVZ       0.037200
     69 H33         -9.1180    -8.5280   -22.6300 ha         1 OVZ       0.134500
     70 H34         -8.8740    -9.0250   -20.2260 ha         1 OVZ       0.129000
     71 H35        -10.6350   -10.2950   -19.0340 ha         1 OVZ       0.129000
     72 H36        -12.6420   -11.0570   -20.2710 ha         1 OVZ       0.129000
     73 H37        -12.8810   -10.5530   -22.6690 ha         1 OVZ       0.134500
     74 H38         -5.2230    -3.1880   -27.9450 h1         1 OVZ       0.075700
     75 H39        -10.4680    -7.9350   -25.6780 hn         1 OVZ       0.360800
     76 H41         -0.5810    -2.6930   -29.2500 hn         1 OVZ       0.341500
     77 H42         -5.5330    -1.1060   -28.5230 ho         1 OVZ       0.417000
     78 C15        -11.4420    -6.8490   -24.2740 c3         1 OVZ       0.140500
     79 H16          0.3960    -0.5390   -29.1380 hn         1 OVZ       0.368300
@<TRIPOS>BOND
     1     1     6 1   
     2     1    19 1   
     3     1    28 1   
     4     1    39 1   
     5     2     3 1   
     6     2     4 1   
     7     2    28 1   
     8     2    40 1   
     9     3    41 1   
    10     4     5 1   
    11     4    36 1   
    12     4    42 1   
    13     5    37 1   
    14     5    43 1   
    15     5    44 1   
    16     6     7 1   
    17     6    45 1   
    18     6    46 1   
    19     7     8 1   
    20     7    47 1   
    21     7    48 1   
    22     8     9 1   
    23     8    49 1   
    24     8    50 1   
    25     9    10 1   
    26     9    29 1   
    27    10    20 2   
    28    10    51 1   
    29    11    12 2   
    30    11    14 1   
    31    11    32 1   
    32    13    14 1   
    33    13    54 1   
    34    13    79 1   
    35    14    15 1   
    36    14    55 1   
    37    15    16 1   
    38    15    56 1   
    39    15    57 1   
    40    16    17 1   
    41    16    18 1   
    42    16    58 1   
    43    17    59 1   
    44    17    60 1   
    45    17    61 1   
    46    18    62 1   
    47    18    63 1   
    48    18    64 1   
    49    19    36 1   
    50    19    65 1   
    51    19    66 1   
    52    20    30 1   
    53    20    78 1   
    54    21    22 1   
    55    21    31 1   
    56    21    67 1   
    57    21    68 1   
    58    22    23 ar  
    59    22    27 ar  
    60    23    24 ar  
    61    23    69 1   
    62    24    25 ar  
    63    24    70 1   
    64    25    26 ar  
    65    25    71 1   
    66    26    27 ar  
    67    26    72 1   
    68    27    73 1   
    69    28    35 1   
    70    28    74 1   
    71    29    30 2   
    72    31    75 1   
    73    31    78 1   
    74    32    38 1   
    75    32    76 1   
    76    33    38 2   
    77    34    38 2   
    78    35    77 1   
    79    37    38 1   
    80    52    78 1   
    81    53    78 1   
@<TRIPOS>SUBSTRUCTURE
     1 OVZ         1 TEMP              0 ****  ****    0 ROOT
