@<TRIPOS>MOLECULE
OW0
   43    46     1     0     0
SMALL
abcg2


@<TRIPOS>ATOM
      1 N1          10.5290     3.6070    11.9650 n3         1 OW0      -0.746600
      2 C2          11.6270     1.7960    10.9190 cx         1 OW0       0.053300
      3 C4          11.3370     3.2860    10.7950 c5         1 OW0       0.188000
      4 C6          12.6460     4.0650    10.9470 c6         1 OW0      -0.075400
      5 C8           9.0890     3.5720    11.8250 c3         1 OW0       0.174100
      6 O2          14.1800     2.5910    12.0290 os         1 OW0      -0.450100
      7 C11         16.5320     1.2740    10.9640 ca         1 OW0      -0.066300
      8 C12         16.0690     0.4960     9.9090 ca         1 OW0      -0.095000
      9 C13         16.6010     0.6430     8.6340 ca         1 OW0      -0.110500
     10 C14         17.6020     1.5760     8.4000 ca         1 OW0      -0.106000
     11 C15         18.0660     2.3610     9.4480 ca         1 OW0      -0.110500
     12 C9          15.2630     2.3920    12.7620 c          1 OW0       0.600100
     13 C1          11.4920     1.4840    12.3330 cx         1 OW0       0.053300
     14 C3          11.1280     2.7960    13.0170 c5         1 OW0       0.188000
     15 C7          13.3640     3.7600    12.2650 c6         1 OW0       0.182300
     16 O1          10.5260     1.0360    11.3940 op         1 OW0      -0.433000
     17 C10         15.9550     1.1080    12.3530 c3         1 OW0      -0.078400
     18 C16         17.5340     2.2110    10.7200 ca         1 OW0      -0.095000
     19 C17         17.0000     0.6930    13.3810 c3         1 OW0       0.175600
     20 H2          12.3220     1.2930    10.2530 h1         1 OW0       0.110700
     21 H3          10.8260     3.5680     9.8720 h1         1 OW0       0.079700
     22 H4          12.9310     2.9680    14.2390 hc         1 OW0       0.063450
     23 H5          12.1310     4.4770    13.8670 hc         1 OW0       0.063450
     24 H6          13.3300     3.8840    10.1140 hc         1 OW0       0.063450
     25 H7          12.4040     5.1290    10.9280 hc         1 OW0       0.063450
     26 H8           8.6360     3.9220    12.7540 h1         1 OW0       0.036700
     27 H9           8.7930     4.2720    11.0420 h1         1 OW0       0.036700
     28 H10          8.6530     2.5980    11.5870 h1         1 OW0       0.036700
     29 H11         18.2040    -0.8060    13.5980 ho         1 OW0       0.447000
     30 H13         16.2330     0.0270     7.8240 ha         1 OW0       0.113000
     31 H14         18.0190     1.6910     7.4080 ha         1 OW0       0.112000
     32 H15         18.8450     3.0920     9.2750 ha         1 OW0       0.113000
     33 H16         12.0750     0.7200    12.8400 h1         1 OW0       0.110700
     34 H17         10.4480     2.6850    13.8640 h1         1 OW0       0.079700
     35 H18         14.0270     4.5920    12.5080 h1         1 OW0       0.066700
     36 H19         15.1870     0.3290    12.3130 hc         1 OW0       0.086700
     37 H20         17.9050     2.8320    11.5280 ha         1 OW0       0.114500
     38 H21         17.7750     1.4640    13.4640 h1         1 OW0       0.034200
     39 H22         16.5220     0.6110    14.3650 h1         1 OW0       0.034200
     40 C5          12.4130     3.5100    13.4450 c6         1 OW0      -0.075400
     41 H12         15.2870    -0.2330    10.0840 ha         1 OW0       0.114500
     42 O3          17.5340    -0.5400    12.9610 oh         1 OW0      -0.657000
     43 O4          15.6520     3.1410    13.6230 o          1 OW0      -0.494000
@<TRIPOS>BOND
     1     1     3 1   
     2     1     5 1   
     3     1    14 1   
     4     2     3 1   
     5     2    13 1   
     6     2    16 1   
     7     2    20 1   
     8     3     4 1   
     9     3    21 1   
    10     4    15 1   
    11     4    24 1   
    12     4    25 1   
    13     5    26 1   
    14     5    27 1   
    15     5    28 1   
    16     6    12 1   
    17     6    15 1   
    18     7     8 ar  
    19     7    17 1   
    20     7    18 ar  
    21     8     9 ar  
    22     8    41 1   
    23     9    10 ar  
    24     9    30 1   
    25    10    11 ar  
    26    10    31 1   
    27    11    18 ar  
    28    11    32 1   
    29    12    17 1   
    30    12    43 2   
    31    13    14 1   
    32    13    16 1   
    33    13    33 1   
    34    14    34 1   
    35    14    40 1   
    36    15    35 1   
    37    15    40 1   
    38    17    19 1   
    39    17    36 1   
    40    18    37 1   
    41    19    38 1   
    42    19    39 1   
    43    19    42 1   
    44    22    40 1   
    45    23    40 1   
    46    29    42 1   
@<TRIPOS>SUBSTRUCTURE
     1 OW0         1 TEMP              0 ****  ****    0 ROOT
