@<TRIPOS>MOLECULE
OW0
   43    46     1     0     0
SMALL
No Charge or Current Charge


@<TRIPOS>ATOM
      1 N1          10.2550     3.5880    12.4630 n3         1 OW0      -0.746600
      2 C2          11.0660     1.5250    11.5860 cx         1 OW0       0.053300
      3 C4          10.6100     2.9520    11.1550 c5         1 OW0       0.188000
      4 C6          11.8010     3.7760    10.5830 c6         1 OW0      -0.075400
      5 C8           8.8560     3.4140    12.9340 c3         1 OW0       0.174100
      6 O2          13.8450     2.6440    11.3370 os         1 OW0      -0.450100
      7 C11         16.9930     1.3550    10.5830 ca         1 OW0      -0.066300
      8 C12         16.8830     0.9780     9.2290 ca         1 OW0      -0.095000
      9 C13         17.9810     1.1050     8.3600 ca         1 OW0      -0.110500
     10 C14         19.2000     1.6150     8.8370 ca         1 OW0      -0.106000
     11 C15         19.3180     1.9990    10.1820 ca         1 OW0      -0.110500
     12 C9          15.1410     2.5890    11.7820 c          1 OW0       0.600100
     13 C1          11.5300     1.6500    13.0090 cx         1 OW0       0.053300
     14 C3          11.3400     3.1480    13.3940 c5         1 OW0       0.188000
     15 C7          13.0330     3.8220    11.5320 c6         1 OW0       0.182300
     16 O1          10.3790     0.8340    12.6630 op         1 OW0      -0.433000
     17 C10         15.7780     1.2200    11.5130 c3         1 OW0      -0.078400
     18 C16         18.2200     1.8720    11.0510 ca         1 OW0      -0.095000
     19 C17         16.0770     0.5150    12.8550 c3         1 OW0       0.175600
     20 H2          11.6220     0.8860    10.9000 h1         1 OW0       0.110700
     21 H3           9.7810     2.9530    10.4320 h1         1 OW0       0.079700
     22 H4          13.4230     3.7330    13.6980 hc         1 OW0       0.063450
     23 H5          12.3760     5.0480    13.2100 hc         1 OW0       0.063450
     24 H6          12.1000     3.3700     9.6070 hc         1 OW0       0.063450
     25 H7          11.4580     4.8020    10.3910 hc         1 OW0       0.063450
     26 H8           8.7000     3.9620    13.8730 h1         1 OW0       0.036700
     27 H9           8.1520     3.8150    12.1930 h1         1 OW0       0.036700
     28 H10          8.5930     2.3650    13.1120 h1         1 OW0       0.036700
     29 H11         16.7140    -1.2250    13.5020 ho         1 OW0       0.447000
     30 H13         17.8860     0.8100     7.3180 ha         1 OW0       0.113000
     31 H14         20.0490     1.7140     8.1650 ha         1 OW0       0.112000
     32 H15         20.2600     2.3980    10.5520 ha         1 OW0       0.113000
     33 H16         12.4130     1.0970    13.3310 h1         1 OW0       0.110700
     34 H17         11.0940     3.3060    14.4540 h1         1 OW0       0.079700
     35 H18         13.6430     4.6900    11.2420 h1         1 OW0       0.066700
     36 H19         15.0150     0.6120    11.0120 hc         1 OW0       0.086700
     37 H20         18.3280     2.1840    12.0870 ha         1 OW0       0.114500
     38 H21         16.8380     1.0780    13.4120 h1         1 OW0       0.034200
     39 H22         15.1630     0.5110    13.4640 h1         1 OW0       0.034200
     40 C5          12.5980     3.9890    13.0220 c6         1 OW0      -0.075400
     41 H12         15.9440     0.5840     8.8440 ha         1 OW0       0.114500
     42 O3          16.5150    -0.8310    12.6230 oh         1 OW0      -0.657000
     43 O4          15.7200     3.5210    12.3240 o          1 OW0      -0.494000
@<TRIPOS>BOND
     1     1     3 1   
     2     1     5 1   
     3     1    14 1   
     4     2     3 1   
     5     2    13 1   
     6     2    16 1   
     7     2    20 1   
     8     3     4 1   
     9     3    21 1   
    10     4    15 1   
    11     4    24 1   
    12     4    25 1   
    13     5    26 1   
    14     5    27 1   
    15     5    28 1   
    16     6    12 1   
    17     6    15 1   
    18     7     8 ar  
    19     7    17 1   
    20     7    18 ar  
    21     8     9 ar  
    22     8    41 1   
    23     9    10 ar  
    24     9    30 1   
    25    10    11 ar  
    26    10    31 1   
    27    11    18 ar  
    28    11    32 1   
    29    12    17 1   
    30    12    43 2   
    31    13    14 1   
    32    13    16 1   
    33    13    33 1   
    34    14    34 1   
    35    14    40 1   
    36    15    35 1   
    37    15    40 1   
    38    17    19 1   
    39    17    36 1   
    40    18    37 1   
    41    19    38 1   
    42    19    39 1   
    43    19    42 1   
    44    22    40 1   
    45    23    40 1   
    46    29    42 1   
@<TRIPOS>SUBSTRUCTURE
     1 OW0         1 TEMP              0 ****  ****    0 ROOT
