@<TRIPOS>MOLECULE
OW1
   70    72     1     0     0
SMALL
No Charge or Current Charge


@<TRIPOS>ATOM
      1 C1          18.8900   -19.9220   -30.8860 c2         1 OW1      -0.292000
      2 C2          17.9150   -20.0960   -29.9780 c2         1 OW1      -0.238200
      3 C3          18.1160   -20.0940   -28.4770 c3         1 OW1       0.139900
      4 C4          16.8740   -20.6230   -27.7140 c3         1 OW1      -0.070400
      5 C5          17.0250   -20.7240   -26.1680 c5         1 OW1      -0.153700
      6 C6          18.0570   -21.7710   -25.6650 c5         1 OW1      -0.093400
      7 C7          17.6020   -21.9600   -24.1920 c5         1 OW1       0.100000
      8 N1          16.1520   -21.8650   -24.3490 ns         1 OW1      -0.517900
      9 C8          15.7430   -21.1520   -25.4430 c          1 OW1       0.558000
     10 O1          14.5830   -21.1190   -25.8210 o          1 OW1      -0.560000
     11 N2          18.4420   -18.7310   -28.0710 ns         1 OW1      -0.487900
     12 C9          19.4160   -18.3940   -27.1540 c          1 OW1       0.592100
     13 O2          20.2020   -19.2040   -26.6780 o          1 OW1      -0.614100
     14 C10         19.3510   -16.8600   -26.8750 c5         1 OW1       0.060700
     15 C11         20.1160   -16.0400   -27.9310 cx         1 OW1      -0.123700
     16 C12         21.1110   -15.1530   -27.2310 cx         1 OW1      -0.127700
     17 C13         21.0100   -15.3920   -25.7190 c5         1 OW1       0.137000
     18 N3          20.0160   -16.4880   -25.5880 n          1 OW1      -0.397800
     19 C14         19.4010   -16.8050   -24.3580 c          1 OW1       0.591100
     20 O3          18.2690   -17.2810   -24.3490 o          1 OW1      -0.621100
     21 C15         20.1930   -16.6030   -23.0210 c3         1 OW1       0.044700
     22 N4          19.2090   -16.3340   -21.9420 ns         1 OW1      -0.475900
     23 C16         19.3220   -15.3470   -20.9780 c          1 OW1       0.555100
     24 O4          20.2810   -14.5830   -20.9510 o          1 OW1      -0.553100
     25 C17         18.1510   -15.2880   -19.9570 c3         1 OW1       0.208000
     26 F1          18.0250   -16.4570   -19.2850 f          1 OW1      -0.100667
     27 F2          16.9700   -15.0480   -20.5760 f          1 OW1      -0.100667
     28 F3          18.3260   -14.3110   -19.0340 f          1 OW1      -0.100667
     29 C18         21.1470   -17.8090   -22.6540 c3         1 OW1      -0.051000
     30 C19         21.7960   -17.5880   -21.2580 c3         1 OW1      -0.090433
     31 C20         20.3590   -19.1500   -22.6210 c3         1 OW1      -0.090433
     32 C21         22.3010   -17.9430   -23.6840 c3         1 OW1      -0.090433
     33 C22         19.9060   -14.5330   -27.9230 cx         1 OW1      -0.078000
     34 C23         20.1430   -13.7750   -29.2290 c3         1 OW1      -0.065100
     35 C24         18.7620   -13.8600   -27.1440 c3         1 OW1      -0.065100
     36 H1          19.9280   -19.7610   -30.5900 ha         1 OW1       0.166500
     37 H4          18.9660   -20.7510   -28.2450 h1         1 OW1       0.082700
     38 H5          16.0250   -19.9700   -27.9500 hc         1 OW1       0.062200
     39 H6          16.6160   -21.6110   -28.1150 hc         1 OW1       0.062200
     40 H7          17.3020   -19.7470   -25.7550 hc         1 OW1       0.091700
     41 H8          17.9730   -22.7130   -26.2200 hc         1 OW1       0.063700
     42 H9          19.0970   -21.4380   -25.7410 hc         1 OW1       0.063700
     43 H10         17.9250   -22.9260   -23.7810 h1         1 OW1       0.043700
     44 H11         17.9870   -21.1600   -23.5460 h1         1 OW1       0.043700
     45 H12         15.4570   -22.3230   -23.7710 hn         1 OW1       0.325500
     46 H13         17.8770   -17.9780   -28.4410 hn         1 OW1       0.320500
     47 H14         18.2880   -16.5850   -26.8480 h1         1 OW1       0.083700
     48 H15         20.4050   -16.5090   -28.8700 hc         1 OW1       0.107700
     49 H16         22.0910   -15.0070   -27.6820 hc         1 OW1       0.103700
     50 H17         21.9790   -15.6940   -25.3040 h1         1 OW1       0.062200
     51 H18         20.6910   -14.4920   -25.1750 h1         1 OW1       0.062200
     52 H19         20.8110   -15.7060   -23.1420 h1         1 OW1       0.088700
     53 H20         18.3630   -16.8950   -21.9250 hn         1 OW1       0.355500
     54 H21         21.0480   -17.6010   -20.4560 hc         1 OW1       0.042922
     55 H22         22.5240   -18.3770   -21.0330 hc         1 OW1       0.042922
     56 H23         22.3230   -16.6270   -21.2190 hc         1 OW1       0.042922
     57 H24         19.5240   -19.1050   -21.9120 hc         1 OW1       0.042922
     58 H25         19.9540   -19.4010   -23.6090 hc         1 OW1       0.042922
     59 H26         21.0100   -19.9780   -22.3150 hc         1 OW1       0.042922
     60 H27         22.9740   -18.7660   -23.4110 hc         1 OW1       0.042922
     61 H28         21.9250   -18.1550   -24.6910 hc         1 OW1       0.042922
     62 H29         22.9020   -17.0270   -23.7220 hc         1 OW1       0.042922
     63 H30         20.4180   -12.7310   -29.0340 hc         1 OW1       0.042700
     64 H31         20.9540   -14.2240   -29.8150 hc         1 OW1       0.042700
     65 H32         19.2430   -13.7770   -29.8550 hc         1 OW1       0.042700
     66 H33         18.5340   -14.3380   -26.1860 hc         1 OW1       0.042700
     67 H34         19.0060   -12.8130   -26.9270 hc         1 OW1       0.042700
     68 H35         17.8370   -13.8680   -27.7330 hc         1 OW1       0.042700
     69 H2          18.6830   -19.9330   -31.9570 ha         1 OW1       0.166500
     70 H3          16.8850   -20.2530   -30.3050 ha         1 OW1       0.172000
@<TRIPOS>BOND
     1     1     2 2   
     2     1    36 1   
     3     1    69 1   
     4     2     3 1   
     5     2    70 1   
     6     3     4 1   
     7     3    11 1   
     8     3    37 1   
     9     4     5 1   
    10     4    38 1   
    11     4    39 1   
    12     5     6 1   
    13     5     9 1   
    14     5    40 1   
    15     6     7 1   
    16     6    41 1   
    17     6    42 1   
    18     7     8 1   
    19     7    43 1   
    20     7    44 1   
    21     8     9 1   
    22     8    45 1   
    23     9    10 2   
    24    11    12 1   
    25    11    46 1   
    26    12    13 2   
    27    12    14 1   
    28    14    15 1   
    29    14    18 1   
    30    14    47 1   
    31    15    16 1   
    32    15    33 1   
    33    15    48 1   
    34    16    17 1   
    35    16    33 1   
    36    16    49 1   
    37    17    18 1   
    38    17    50 1   
    39    17    51 1   
    40    18    19 1   
    41    19    20 2   
    42    19    21 1   
    43    21    22 1   
    44    21    29 1   
    45    21    52 1   
    46    22    23 1   
    47    22    53 1   
    48    23    24 2   
    49    23    25 1   
    50    25    26 1   
    51    25    27 1   
    52    25    28 1   
    53    29    30 1   
    54    29    31 1   
    55    29    32 1   
    56    30    54 1   
    57    30    55 1   
    58    30    56 1   
    59    31    57 1   
    60    31    58 1   
    61    31    59 1   
    62    32    60 1   
    63    32    61 1   
    64    32    62 1   
    65    33    34 1   
    66    33    35 1   
    67    34    63 1   
    68    34    64 1   
    69    34    65 1   
    70    35    66 1   
    71    35    67 1   
    72    35    68 1   
@<TRIPOS>SUBSTRUCTURE
     1 OW1         1 TEMP              0 ****  ****    0 ROOT
