@<TRIPOS>MOLECULE
OW1
   70    72     1     0     0
SMALL
abcg2


@<TRIPOS>ATOM
      1 C1          17.6270   -20.4900   -30.7680 c2         1 OW1      -0.292000
      2 C2          17.1600   -19.9160   -29.6670 c2         1 OW1      -0.238200
      3 C3          17.8850   -19.9050   -28.3500 c3         1 OW1       0.139900
      4 C4          17.1150   -20.6980   -27.2810 c3         1 OW1      -0.070400
      5 C5          17.8580   -20.7950   -25.9560 c5         1 OW1      -0.153700
      6 C6          19.1410   -21.6390   -25.9740 c5         1 OW1      -0.093400
      7 C7          19.2210   -22.2470   -24.5640 c5         1 OW1       0.100000
      8 N1          17.8260   -22.2450   -24.1390 ns         1 OW1      -0.517900
      9 C8          17.0220   -21.4320   -24.8490 c          1 OW1       0.558000
     10 O1          15.8310   -21.2240   -24.6260 o          1 OW1      -0.560000
     11 N2          18.0910   -18.5260   -27.9100 ns         1 OW1      -0.487900
     12 C9          19.2690   -18.0340   -27.4990 c          1 OW1       0.592100
     13 O2          20.3250   -18.6650   -27.5050 o          1 OW1      -0.614100
     14 C10         19.2310   -16.5750   -27.0270 c5         1 OW1       0.060700
     15 C11         20.0960   -15.7150   -27.9250 cx         1 OW1      -0.123700
     16 C12         21.2850   -15.2450   -27.1210 cx         1 OW1      -0.127700
     17 C13         21.1670   -15.8070   -25.7260 c5         1 OW1       0.137000
     18 N3          19.8430   -16.4580   -25.6980 n          1 OW1      -0.397800
     19 C14         19.1650   -16.8860   -24.6200 c          1 OW1       0.591100
     20 O3          18.0240   -17.3490   -24.7070 o          1 OW1      -0.621100
     21 C15         19.8430   -16.7880   -23.2520 c3         1 OW1       0.044700
     22 N4          18.9010   -16.1260   -22.3600 ns         1 OW1      -0.475900
     23 C16         19.2110   -15.0430   -21.6490 c          1 OW1       0.555100
     24 O4          20.2870   -14.4700   -21.6030 o          1 OW1      -0.553100
     25 C17         18.0470   -14.4660   -20.8010 c3         1 OW1       0.208000
     26 F1          16.9380   -15.2290   -20.8180 f          1 OW1      -0.100667
     27 F2          17.7100   -13.2480   -21.2580 f          1 OW1      -0.100667
     28 F3          18.4280   -14.3320   -19.5220 f          1 OW1      -0.100667
     29 C18         20.3050   -18.1760   -22.7000 c3         1 OW1      -0.051000
     30 C19         21.1520   -17.9220   -21.4470 c3         1 OW1      -0.090433
     31 C20         19.1170   -19.0720   -22.3320 c3         1 OW1      -0.090433
     32 C21         21.1630   -18.8700   -23.7640 c3         1 OW1      -0.090433
     33 C22         20.2600   -14.2490   -27.6080 cx         1 OW1      -0.078000
     34 C23         20.6990   -13.3870   -28.7740 c3         1 OW1      -0.065100
     35 C24         19.3310   -13.5280   -26.6540 c3         1 OW1      -0.065100
     36 H1          18.5920   -20.9860   -30.7810 ha         1 OW1       0.166500
     37 H4          18.8770   -20.3340   -28.4820 h1         1 OW1       0.082700
     38 H5          16.1420   -20.2250   -27.1220 hc         1 OW1       0.062200
     39 H6          16.9280   -21.7020   -27.6700 hc         1 OW1       0.062200
     40 H7          18.0810   -19.7840   -25.5960 hc         1 OW1       0.091700
     41 H8          19.0410   -22.4370   -26.7140 hc         1 OW1       0.063700
     42 H9          20.0240   -21.0550   -26.2200 hc         1 OW1       0.063700
     43 H10         19.6250   -23.2580   -24.5640 h1         1 OW1       0.043700
     44 H11         19.8270   -21.6330   -23.8930 h1         1 OW1       0.043700
     45 H12         17.5130   -22.6770   -23.2820 hn         1 OW1       0.325500
     46 H13         17.2700   -17.9510   -27.7910 hn         1 OW1       0.320500
     47 H14         18.1990   -16.2270   -26.9700 h1         1 OW1       0.083700
     48 H15         20.2070   -16.0380   -28.9510 hc         1 OW1       0.107700
     49 H16         22.2740   -15.2220   -27.5570 hc         1 OW1       0.103700
     50 H17         21.9600   -16.5320   -25.5430 h1         1 OW1       0.062200
     51 H18         21.2190   -15.0350   -24.9570 h1         1 OW1       0.062200
     52 H19         20.7180   -16.1490   -23.3040 h1         1 OW1       0.088700
     53 H20         17.9580   -16.4840   -22.3370 hn         1 OW1       0.355500
     54 H21         20.5720   -17.4180   -20.6720 hc         1 OW1       0.042922
     55 H22         21.4990   -18.8730   -21.0390 hc         1 OW1       0.042922
     56 H23         22.0250   -17.3090   -21.6790 hc         1 OW1       0.042922
     57 H24         18.5130   -18.6280   -21.5390 hc         1 OW1       0.042922
     58 H25         18.4750   -19.2600   -23.1900 hc         1 OW1       0.042922
     59 H26         19.4910   -20.0300   -21.9660 hc         1 OW1       0.042922
     60 H27         21.5510   -19.8080   -23.3640 hc         1 OW1       0.042922
     61 H28         20.5870   -19.1030   -24.6600 hc         1 OW1       0.042922
     62 H29         22.0150   -18.2520   -24.0540 hc         1 OW1       0.042922
     63 H30         21.2270   -12.4990   -28.4160 hc         1 OW1       0.042700
     64 H31         21.3680   -13.9320   -29.4430 hc         1 OW1       0.042700
     65 H32         19.8350   -13.0540   -29.3550 hc         1 OW1       0.042700
     66 H33         19.0080   -14.1390   -25.8140 hc         1 OW1       0.042700
     67 H34         19.8270   -12.6420   -26.2510 hc         1 OW1       0.042700
     68 H35         18.4370   -13.1940   -27.1860 hc         1 OW1       0.042700
     69 H2          17.0610   -20.4880   -31.6920 ha         1 OW1       0.166500
     70 H3          16.1890   -19.4270   -29.6740 ha         1 OW1       0.172000
@<TRIPOS>BOND
     1     1     2 2   
     2     1    36 1   
     3     1    69 1   
     4     2     3 1   
     5     2    70 1   
     6     3     4 1   
     7     3    11 1   
     8     3    37 1   
     9     4     5 1   
    10     4    38 1   
    11     4    39 1   
    12     5     6 1   
    13     5     9 1   
    14     5    40 1   
    15     6     7 1   
    16     6    41 1   
    17     6    42 1   
    18     7     8 1   
    19     7    43 1   
    20     7    44 1   
    21     8     9 1   
    22     8    45 1   
    23     9    10 2   
    24    11    12 1   
    25    11    46 1   
    26    12    13 2   
    27    12    14 1   
    28    14    15 1   
    29    14    18 1   
    30    14    47 1   
    31    15    16 1   
    32    15    33 1   
    33    15    48 1   
    34    16    17 1   
    35    16    33 1   
    36    16    49 1   
    37    17    18 1   
    38    17    50 1   
    39    17    51 1   
    40    18    19 1   
    41    19    20 2   
    42    19    21 1   
    43    21    22 1   
    44    21    29 1   
    45    21    52 1   
    46    22    23 1   
    47    22    53 1   
    48    23    24 2   
    49    23    25 1   
    50    25    26 1   
    51    25    27 1   
    52    25    28 1   
    53    29    30 1   
    54    29    31 1   
    55    29    32 1   
    56    30    54 1   
    57    30    55 1   
    58    30    56 1   
    59    31    57 1   
    60    31    58 1   
    61    31    59 1   
    62    32    60 1   
    63    32    61 1   
    64    32    62 1   
    65    33    34 1   
    66    33    35 1   
    67    34    63 1   
    68    34    64 1   
    69    34    65 1   
    70    35    66 1   
    71    35    67 1   
    72    35    68 1   
@<TRIPOS>SUBSTRUCTURE
     1 OW1         1 TEMP              0 ****  ****    0 ROOT
