@<TRIPOS>MOLECULE
OW2
   83    85     1     0     0
SMALL
abcg2


@<TRIPOS>ATOM
      1 C9         -10.2530    -2.0150   -25.0960 c3         1 OW2       0.078600
      2 C8          -9.1540    -2.1950   -26.1380 c3         1 OW2      -0.087400
      3 C7          -8.3670    -3.4880   -25.9530 c3         1 OW2      -0.072400
      4 C1          -6.9650    -5.3180   -26.8300 c6         1 OW2       0.146600
      5 C2          -7.4540    -3.8970   -27.1100 c6         1 OW2      -0.081700
      6 C3          -6.2290    -3.0130   -27.3010 c6         1 OW2       0.137300
      7 C4          -5.2970    -3.6060   -28.3700 c6         1 OW2       0.126300
      8 C5          -4.9800    -5.0830   -28.1340 c6         1 OW2       0.175300
      9 C6          -3.8120    -5.3170   -27.1880 c3         1 OW2       0.174600
     10 CA          -1.4400    -1.0960   -27.4220 c3         1 OW2       0.113500
     11 CB          -2.2020    -0.9180   -28.7420 c3         1 OW2      -0.067400
     12 N           -0.1210    -1.6150   -27.6600 n8         1 OW2      -1.045200
     13 C           -2.3480    -1.8840   -26.4760 c          1 OW2       0.586100
     14 O           -3.4140    -1.4620   -26.0880 o          1 OW2      -0.545100
     15 CG          -1.4830    -0.0630   -29.7850 c3         1 OW2      -0.052700
     16 CD1         -2.3510     0.0400   -31.0360 c3         1 OW2      -0.090100
     17 CD2         -1.1390     1.3230   -29.2510 c3         1 OW2      -0.090100
     18 C13        -12.3050    -4.9300   -25.0480 cc         1 OW2       0.189300
     19 C14        -11.3230    -4.1940   -24.4360 cd         1 OW2      -0.206000
     20 C15        -12.8120    -6.2950   -24.7170 c3         1 OW2       0.108700
     21 C17        -10.7080    -7.5190   -24.9210 c          1 OW2       0.645100
     22 C19         -8.5380    -8.6510   -24.7960 c3         1 OW2       0.150300
     23 C20         -7.4570    -7.7520   -24.2340 ca         1 OW2      -0.111300
     24 C21         -6.1240    -8.0360   -24.5240 ca         1 OW2      -0.109000
     25 C22         -5.1030    -7.2370   -24.0330 ca         1 OW2      -0.110000
     26 C23         -5.4010    -6.1380   -23.2360 ca         1 OW2      -0.110000
     27 C24         -6.7240    -5.8450   -22.9470 ca         1 OW2      -0.110000
     28 C25         -7.7460    -6.6460   -23.4450 ca         1 OW2      -0.109000
     29 N10        -11.2480    -3.0700   -25.1700 na         1 OW2       0.129800
     30 N11        -12.1180    -3.0960   -26.1600 nd         1 OW2      -0.201800
     31 N12        -12.7640    -4.2130   -26.0920 nc         1 OW2      -0.351000
     32 N16        -11.7860    -7.1520   -24.1810 ns         1 OW2      -0.538900
     33 N18         -9.8600    -8.3890   -24.3000 ns         1 OW2      -0.516900
     34 N3S         -1.8790    -3.1310   -26.1250 ns         1 OW2      -0.626300
     35 O17        -10.5300    -7.1110   -26.0620 o          1 OW2      -0.620100
     36 O1S         -1.8090    -5.3310   -25.0020 o          1 OW2      -0.539000
     37 O2S         -3.1750    -3.5020   -23.9630 o          1 OW2      -0.539000
     38 O3          -6.6160    -1.7150   -27.7140 oh         1 OW2      -0.670000
     39 O4          -5.8960    -3.5150   -29.6410 oh         1 OW2      -0.714000
     40 O5          -6.1270    -5.8340   -27.8450 os         1 OW2      -0.426000
     41 O6          -3.9670    -4.5640   -25.9620 os         1 OW2      -0.565700
     42 S           -2.6810    -4.1890   -25.1220 s6         1 OW2       1.437500
     43 H1          -9.8430    -2.0290   -24.0870 h1         1 OW2       0.064700
     44 H2         -10.7620    -1.0620   -25.2330 h1         1 OW2       0.064700
     45 H3          -8.5000    -1.3270   -26.0680 hc         1 OW2       0.068200
     46 H4          -9.6040    -2.1670   -27.1340 hc         1 OW2       0.068200
     47 H5          -9.0740    -4.3130   -25.8180 hc         1 OW2       0.046700
     48 H6          -7.7830    -3.4400   -25.0260 hc         1 OW2       0.046700
     49 H7          -7.8170    -5.9960   -26.7690 h1         1 OW2       0.066700
     50 H8          -6.4680    -5.3450   -25.8520 h1         1 OW2       0.066700
     51 H9          -8.0430    -3.9030   -28.0350 hc         1 OW2       0.083700
     52 H10         -5.6960    -2.9610   -26.3470 h1         1 OW2       0.066700
     53 H11         -4.3500    -3.0420   -28.3590 h1         1 OW2       0.018700
     54 H12         -4.6060    -5.4850   -29.0830 h1         1 OW2       0.091700
     55 H13         -3.7250    -6.3760   -26.9430 h1         1 OW2       0.057700
     56 H14         -2.9010    -5.0010   -27.7030 h1         1 OW2       0.057700
     57 H15         -1.3370    -0.1160   -26.9450 h1         1 OW2       0.096700
     58 H16         -3.1770    -0.4730   -28.5240 hc         1 OW2       0.047200
     59 H17         -2.4040    -1.9070   -29.1730 hc         1 OW2       0.047200
     60 H18          0.4390    -1.7160   -26.8260 hn         1 OW2       0.423500
     61 H19         -0.1050    -2.4710   -28.1980 hn         1 OW2       0.423500
     62 H21         -0.5500    -0.5660   -30.0560 hc         1 OW2       0.058700
     63 H22         -1.8460     0.6050   -31.8200 hc         1 OW2       0.035533
     64 H23         -2.5920    -0.9460   -31.4390 hc         1 OW2       0.035533
     65 H24         -3.2940     0.5460   -30.8170 hc         1 OW2       0.035533
     66 H25         -0.4300     1.2780   -28.4240 hc         1 OW2       0.035533
     67 H26         -0.6870     1.9360   -30.0320 hc         1 OW2       0.035533
     68 H27         -2.0340     1.8420   -28.9000 hc         1 OW2       0.035533
     69 H28        -10.6890    -4.3780   -23.5860 h4         1 OW2       0.160000
     70 H29        -13.5980    -6.2360   -23.9630 h1         1 OW2       0.063200
     71 H30        -13.2730    -6.7250   -25.6110 h1         1 OW2       0.063200
     72 H31         -8.2860    -9.6910   -24.5770 h1         1 OW2       0.071700
     73 H32         -5.8810    -8.8950   -25.1420 ha         1 OW2       0.109000
     74 H33         -4.0730    -7.4730   -24.2730 ha         1 OW2       0.114000
     75 H34         -4.6090    -5.5140   -22.8460 ha         1 OW2       0.123000
     76 H35         -6.9680    -4.9870   -22.3330 ha         1 OW2       0.114000
     77 H36         -8.7720    -6.3990   -23.2060 ha         1 OW2       0.109000
     78 H37        -11.9150    -7.5150   -23.2520 hn         1 OW2       0.310500
     79 H38         -0.9580    -3.4170   -26.4370 hn         1 OW2       0.341500
     80 H39         -5.8950    -1.1080   -27.5120 ho         1 OW2       0.452000
     81 H40         -6.3140    -2.6470   -29.6960 ho         1 OW2       0.524000
     82 H20         -8.5530    -8.5660   -25.8830 h1         1 OW2       0.071700
     83 H41        -10.0310    -8.6180   -23.3330 hn         1 OW2       0.299500
@<TRIPOS>BOND
     1     1     2 1   
     2     1    29 1   
     3     1    43 1   
     4     1    44 1   
     5     2     3 1   
     6     2    45 1   
     7     2    46 1   
     8     3     5 1   
     9     3    47 1   
    10     3    48 1   
    11     4     5 1   
    12     4    40 1   
    13     4    49 1   
    14     4    50 1   
    15     5     6 1   
    16     5    51 1   
    17     6     7 1   
    18     6    38 1   
    19     6    52 1   
    20     7     8 1   
    21     7    39 1   
    22     7    53 1   
    23     8     9 1   
    24     8    40 1   
    25     8    54 1   
    26     9    41 1   
    27     9    55 1   
    28     9    56 1   
    29    10    11 1   
    30    10    12 1   
    31    10    13 1   
    32    10    57 1   
    33    11    15 1   
    34    11    58 1   
    35    11    59 1   
    36    12    60 1   
    37    12    61 1   
    38    13    14 2   
    39    13    34 1   
    40    15    16 1   
    41    15    17 1   
    42    15    62 1   
    43    16    63 1   
    44    16    64 1   
    45    16    65 1   
    46    17    66 1   
    47    17    67 1   
    48    17    68 1   
    49    18    19 2   
    50    18    20 1   
    51    18    31 1   
    52    19    29 1   
    53    19    69 1   
    54    20    32 1   
    55    20    70 1   
    56    20    71 1   
    57    21    32 1   
    58    21    33 1   
    59    21    35 2   
    60    22    23 1   
    61    22    33 1   
    62    22    72 1   
    63    22    82 1   
    64    23    24 ar  
    65    23    28 ar  
    66    24    25 ar  
    67    24    73 1   
    68    25    26 ar  
    69    25    74 1   
    70    26    27 ar  
    71    26    75 1   
    72    27    28 ar  
    73    27    76 1   
    74    28    77 1   
    75    29    30 1   
    76    30    31 2   
    77    32    78 1   
    78    33    83 1   
    79    34    42 1   
    80    34    79 1   
    81    36    42 2   
    82    37    42 2   
    83    38    80 1   
    84    39    81 1   
    85    41    42 1   
@<TRIPOS>SUBSTRUCTURE
     1 OW2         1 TEMP              0 ****  ****    0 ROOT
