@<TRIPOS>MOLECULE
OW2
   83    85     1     0     0
SMALL
No Charge or Current Charge


@<TRIPOS>ATOM
      1 C9         -10.1710    -1.9570   -25.1590 c3         1 OW2       0.078600
      2 C8          -9.1890    -2.2250   -26.3270 c3         1 OW2      -0.087400
      3 C7          -8.3430    -3.5170   -26.1650 c3         1 OW2      -0.072400
      4 C1          -6.9060    -5.3840   -27.1110 c6         1 OW2       0.146600
      5 C2          -7.4770    -3.9640   -27.3930 c6         1 OW2      -0.081700
      6 C3          -6.3170    -2.9770   -27.7680 c6         1 OW2       0.137300
      7 C4          -5.3640    -3.5750   -28.8590 c6         1 OW2       0.126300
      8 C5          -4.9440    -5.0460   -28.5340 c6         1 OW2       0.175300
      9 C6          -3.8200    -5.2030   -27.4490 c3         1 OW2       0.174600
     10 CA          -1.5550    -0.8780   -27.1520 c3         1 OW2       0.113500
     11 CB          -1.9960    -0.9270   -28.6420 c3         1 OW2      -0.067400
     12 N           -0.0710    -1.1470   -27.0260 n8         1 OW2      -1.045200
     13 C           -2.5190    -1.7690   -26.2840 c          1 OW2       0.586100
     14 O           -3.5980    -1.3540   -25.8910 o          1 OW2      -0.545100
     15 CG          -1.3180     0.1000   -29.5960 c3         1 OW2      -0.052700
     16 CD1         -1.7360    -0.1570   -31.0630 c3         1 OW2      -0.090100
     17 CD2         -1.6020     1.5680   -29.1980 c3         1 OW2      -0.090100
     18 C13        -12.3910    -4.7260   -24.6110 cc         1 OW2       0.189300
     19 C14        -11.2270    -4.1070   -24.2760 cd         1 OW2      -0.206000
     20 C15        -12.8900    -6.0750   -24.1440 c3         1 OW2       0.108700
     21 C17        -10.8700    -7.4380   -24.7290 c          1 OW2       0.645100
     22 C19         -8.6660    -8.6220   -24.8420 c3         1 OW2       0.150300
     23 C20         -7.4110    -7.9800   -24.2560 ca         1 OW2      -0.111300
     24 C21         -6.2550    -8.7580   -24.0460 ca         1 OW2      -0.109000
     25 C22         -5.0920    -8.1750   -23.5130 ca         1 OW2      -0.110000
     26 C23         -5.0760    -6.8090   -23.1880 ca         1 OW2      -0.110000
     27 C24         -6.2210    -6.0240   -23.4000 ca         1 OW2      -0.110000
     28 C25         -7.3840    -6.6070   -23.9320 ca         1 OW2      -0.109000
     29 N10        -11.2380    -2.9650   -25.0400 na         1 OW2       0.129800
     30 N11        -12.3960    -2.8910   -25.7720 nd         1 OW2      -0.201800
     31 N12        -13.0950    -3.9660   -25.5030 nc         1 OW2      -0.351000
     32 N16        -11.8070    -7.0190   -23.8250 ns         1 OW2      -0.538900
     33 N18         -9.8790    -8.1790   -24.1500 ns         1 OW2      -0.516900
     34 N3S         -2.0560    -3.0130   -25.9790 ns         1 OW2      -0.626300
     35 O17        -10.9040    -7.1590   -25.9150 o          1 OW2      -0.620100
     36 O1S         -2.0130    -5.4170   -25.2170 o          1 OW2      -0.539000
     37 O2S         -3.4210    -3.7060   -23.9440 o          1 OW2      -0.539000
     38 O3          -6.8480    -1.7430   -28.2930 oh         1 OW2      -0.670000
     39 O4          -6.0580    -3.4940   -30.1150 oh         1 OW2      -0.714000
     40 O5          -6.1100    -5.8550   -28.2190 os         1 OW2      -0.426000
     41 O6          -4.0930    -4.4170   -26.2750 os         1 OW2      -0.565700
     42 S           -2.8700    -4.2290   -25.1970 s6         1 OW2       1.437500
     43 H1          -9.6160    -1.9220   -24.2140 h1         1 OW2       0.064700
     44 H2         -10.6420    -0.9760   -25.3040 h1         1 OW2       0.064700
     45 H3          -8.5210    -1.3600   -26.3950 hc         1 OW2       0.068200
     46 H4          -9.7520    -2.2690   -27.2670 hc         1 OW2       0.068200
     47 H5          -9.0290    -4.3380   -25.9290 hc         1 OW2       0.046700
     48 H6          -7.6990    -3.4040   -25.2840 hc         1 OW2       0.046700
     49 H7          -7.7350    -6.0910   -26.9590 h1         1 OW2       0.066700
     50 H8          -6.3070    -5.3880   -26.1910 h1         1 OW2       0.066700
     51 H9          -8.1620    -4.0480   -28.2480 hc         1 OW2       0.083700
     52 H10         -5.7360    -2.7710   -26.8580 h1         1 OW2       0.066700
     53 H11         -4.4560    -2.9560   -28.9070 h1         1 OW2       0.018700
     54 H12         -4.5130    -5.4650   -29.4540 h1         1 OW2       0.091700
     55 H13         -3.7190    -6.2670   -27.1960 h1         1 OW2       0.057700
     56 H14         -2.8800    -4.8810   -27.9160 h1         1 OW2       0.057700
     57 H15         -1.7350     0.1400   -26.7780 h1         1 OW2       0.096700
     58 H16         -3.0820    -0.7720   -28.6890 hc         1 OW2       0.047200
     59 H17         -1.8200    -1.9410   -29.0230 hc         1 OW2       0.047200
     60 H18          0.1940    -1.2230   -26.0340 hn         1 OW2       0.423500
     61 H19          0.1730    -2.0580   -27.4300 hn         1 OW2       0.423500
     62 H21         -0.2330    -0.0510   -29.5450 hc         1 OW2       0.058700
     63 H22         -1.2180     0.5330   -31.7410 hc         1 OW2       0.035533
     64 H23         -1.4830    -1.1800   -31.3660 hc         1 OW2       0.035533
     65 H24         -2.8160    -0.0180   -31.1920 hc         1 OW2       0.035533
     66 H25         -1.1840     1.8000   -28.2120 hc         1 OW2       0.035533
     67 H26         -1.1460     2.2590   -29.9180 hc         1 OW2       0.035533
     68 H27         -2.6810     1.7660   -29.1720 hc         1 OW2       0.035533
     69 H28        -10.4160    -4.3970   -23.6210 h4         1 OW2       0.160000
     70 H29        -13.5090    -5.9330   -23.2480 h1         1 OW2       0.063200
     71 H30        -13.5230    -6.5180   -24.9230 h1         1 OW2       0.063200
     72 H31         -8.6000    -9.7150   -24.7560 h1         1 OW2       0.071700
     73 H32         -6.2560    -9.8170   -24.2950 ha         1 OW2       0.109000
     74 H33         -4.2050    -8.7830   -23.3520 ha         1 OW2       0.114000
     75 H34         -4.1770    -6.3590   -22.7720 ha         1 OW2       0.123000
     76 H35         -6.2080    -4.9650   -23.1530 ha         1 OW2       0.114000
     77 H36         -8.2630    -5.9880   -24.0950 ha         1 OW2       0.109000
     78 H37        -11.6890    -7.3120   -22.8640 hn         1 OW2       0.310500
     79 H38         -1.1710    -3.3290   -26.3280 hn         1 OW2       0.341500
     80 H39         -6.3420    -1.0130   -27.8690 ho         1 OW2       0.452000
     81 H40         -6.6830    -2.7420   -29.9530 ho         1 OW2       0.524000
     82 H20         -8.7270    -8.3790   -25.9110 h1         1 OW2       0.071700
     83 H41         -9.9470    -8.3480   -23.1560 hn         1 OW2       0.299500
@<TRIPOS>BOND
     1     1     2 1   
     2     1    29 1   
     3     1    43 1   
     4     1    44 1   
     5     2     3 1   
     6     2    45 1   
     7     2    46 1   
     8     3     5 1   
     9     3    47 1   
    10     3    48 1   
    11     4     5 1   
    12     4    40 1   
    13     4    49 1   
    14     4    50 1   
    15     5     6 1   
    16     5    51 1   
    17     6     7 1   
    18     6    38 1   
    19     6    52 1   
    20     7     8 1   
    21     7    39 1   
    22     7    53 1   
    23     8     9 1   
    24     8    40 1   
    25     8    54 1   
    26     9    41 1   
    27     9    55 1   
    28     9    56 1   
    29    10    11 1   
    30    10    12 1   
    31    10    13 1   
    32    10    57 1   
    33    11    15 1   
    34    11    58 1   
    35    11    59 1   
    36    12    60 1   
    37    12    61 1   
    38    13    14 2   
    39    13    34 1   
    40    15    16 1   
    41    15    17 1   
    42    15    62 1   
    43    16    63 1   
    44    16    64 1   
    45    16    65 1   
    46    17    66 1   
    47    17    67 1   
    48    17    68 1   
    49    18    19 2   
    50    18    20 1   
    51    18    31 1   
    52    19    29 1   
    53    19    69 1   
    54    20    32 1   
    55    20    70 1   
    56    20    71 1   
    57    21    32 1   
    58    21    33 1   
    59    21    35 2   
    60    22    23 1   
    61    22    33 1   
    62    22    72 1   
    63    22    82 1   
    64    23    24 ar  
    65    23    28 ar  
    66    24    25 ar  
    67    24    73 1   
    68    25    26 ar  
    69    25    74 1   
    70    26    27 ar  
    71    26    75 1   
    72    27    28 ar  
    73    27    76 1   
    74    28    77 1   
    75    29    30 1   
    76    30    31 2   
    77    32    78 1   
    78    33    83 1   
    79    34    42 1   
    80    34    79 1   
    81    36    42 2   
    82    37    42 2   
    83    38    80 1   
    84    39    81 1   
    85    41    42 1   
@<TRIPOS>SUBSTRUCTURE
     1 OW2         1 TEMP              0 ****  ****    0 ROOT
