@<TRIPOS>MOLECULE
OW4
   19    19     1     0     0
SMALL
No Charge or Current Charge


@<TRIPOS>ATOM
      1 C01          3.9980    -0.6380    -0.0100 c3         1 OW4       0.241100
      2 C03          1.4720    -0.1530    -0.0070 ca         1 OW4       0.300000
      3 C04          1.6330     1.2430    -0.0150 ca         1 OW4      -0.220000
      4 C05          0.5080     2.0820    -0.0170 ca         1 OW4      -0.109000
      5 C06         -0.7830     1.5300    -0.0110 ca         1 OW4      -0.132000
      6 C07         -0.9710     0.1270    -0.0030 ca         1 OW4      -0.095600
      7 C08          0.1790    -0.7020    -0.0010 ca         1 OW4      -0.163000
      8 C09         -2.3730    -0.4740     0.0030 c          1 OW4       0.710600
      9 N02          2.5740    -1.0110    -0.0050 nu         1 OW4      -1.011200
     10 O10         -2.4900    -1.6930     0.0100 o          1 OW4      -0.724500
     11 O11         -3.3360     0.2800     0.0020 o          1 OW4      -0.724500
     12 H1           4.2370    -0.0500    -0.9060 h1         1 OW4       0.013367
     13 H2           4.2400    -0.0410     0.8790 h1         1 OW4       0.013367
     14 H3           4.6260    -1.5390    -0.0070 h1         1 OW4       0.013367
     15 H4           2.6240     1.6880    -0.0200 ha         1 OW4       0.082000
     16 H5           0.6360     3.1620    -0.0230 ha         1 OW4       0.078000
     17 H6          -1.6410     2.1990    -0.0130 ha         1 OW4       0.125000
     18 H7           0.0650    -1.7820     0.0050 ha         1 OW4       0.122000
     19 H8           2.3610    -2.0110     0.0010 hn         1 OW4       0.481000
@<TRIPOS>BOND
     1     1     9 1   
     2     1    12 1   
     3     1    13 1   
     4     1    14 1   
     5     2     3 ar  
     6     2     7 ar  
     7     2     9 1   
     8     3     4 ar  
     9     3    15 1   
    10     4     5 ar  
    11     4    16 1   
    12     5     6 ar  
    13     5    17 1   
    14     6     7 ar  
    15     6     8 1   
    16     7    18 1   
    17     8    10 1   
    18     8    11 1   
    19     9    19 1   
@<TRIPOS>SUBSTRUCTURE
     1 OW4         1 TEMP              0 ****  ****    0 ROOT
