@<TRIPOS>MOLECULE
OW4
   19    19     1     0     0
SMALL
abcg2


@<TRIPOS>ATOM
      1 C01          3.9170    -0.5970    -0.0110 c3         1 OW4       0.241100
      2 C03          1.4830    -0.1830    -0.0070 ca         1 OW4       0.300000
      3 C04          1.6460     1.2100    -0.0140 ca         1 OW4      -0.220000
      4 C05          0.5290     2.0360    -0.0160 ca         1 OW4      -0.109000
      5 C06         -0.7550     1.5160    -0.0100 ca         1 OW4      -0.132000
      6 C07         -0.9350     0.1310    -0.0030 ca         1 OW4      -0.095600
      7 C08          0.1750    -0.6980    -0.0010 ca         1 OW4      -0.163000
      8 C09         -2.3380    -0.4670     0.0030 c          1 OW4       0.710600
      9 N02          2.5500    -1.0310    -0.0070 nu         1 OW4      -1.011200
     10 O10         -2.4220    -1.7110     0.0220 o          1 OW4      -0.724500
     11 O11         -3.2880     0.3400    -0.0130 o          1 OW4      -0.724500
     12 H1           4.1640    -0.0010    -0.8960 h1         1 OW4       0.013367
     13 H2           4.1690     0.0020     0.8710 h1         1 OW4       0.013367
     14 H3           4.5610    -1.4720    -0.0110 h1         1 OW4       0.013367
     15 H4           2.6350     1.6490    -0.0200 ha         1 OW4       0.082000
     16 H5           0.6760     3.1100    -0.0220 ha         1 OW4       0.078000
     17 H6          -1.6130     2.1740    -0.0120 ha         1 OW4       0.125000
     18 H7           0.0340    -1.7730     0.0050 ha         1 OW4       0.122000
     19 H8           2.3680    -2.0180     0.0010 hn         1 OW4       0.481000
@<TRIPOS>BOND
     1     1     9 1   
     2     1    12 1   
     3     1    13 1   
     4     1    14 1   
     5     2     3 ar  
     6     2     7 ar  
     7     2     9 1   
     8     3     4 ar  
     9     3    15 1   
    10     4     5 ar  
    11     4    16 1   
    12     5     6 ar  
    13     5    17 1   
    14     6     7 ar  
    15     6     8 1   
    16     7    18 1   
    17     8    10 1   
    18     8    11 1   
    19     9    19 1   
@<TRIPOS>SUBSTRUCTURE
     1 OW4         1 TEMP              0 ****  ****    0 ROOT
