@<TRIPOS>MOLECULE
OW5
   86    88     1     0     0
SMALL
bcc


@<TRIPOS>ATOM
      1 C1          -6.8000    -5.0270   -29.4090 c6         1 OW5       0.139400
      2 C2          -7.5210    -3.6920   -29.2610 c6         1 OW5      -0.120700
      3 C3          -6.4870    -2.5720   -29.3330 c6         1 OW5       0.117100
      4 C4          -5.6390    -2.6920   -30.6010 c6         1 OW5       0.141100
      5 C5          -5.0830    -4.1060   -30.8030 c6         1 OW5       0.151100
      6 C6          -3.7700    -4.3780   -30.0910 c3         1 OW5       0.151400
      7 C7          -8.3270    -3.6750   -27.9550 c3         1 OW5      -0.075400
      8 C8          -9.6710    -2.9660   -28.0790 c3         1 OW5      -0.095400
      9 C9         -10.4160    -2.8390   -26.7600 c3         1 OW5       0.054300
     10 N            0.1620    -0.9280   -29.0750 n8         1 OW5      -0.933800
     11 CA          -1.2050    -0.5140   -28.9120 c3         1 OW5       0.114500
     12 C           -2.1920    -1.5410   -28.3510 c          1 OW5       0.651100
     13 O           -3.2990    -1.2450   -27.9680 o          1 OW5      -0.538100
     14 CB          -1.7770     0.0040   -30.2370 c3         1 OW5      -0.067400
     15 CG          -0.9810     1.1500   -30.8650 c3         1 OW5      -0.052700
     16 CD1         -0.8740     2.3500   -29.9320 c3         1 OW5      -0.089100
     17 CD2         -1.6220     1.5480   -32.1910 c3         1 OW5      -0.089100
     18 C13        -10.5950    -5.8920   -24.9070 cc         1 OW5       0.327800
     19 C14        -10.0910    -4.6150   -25.0080 cd         1 OW5      -0.238600
     20 C15        -10.3480    -6.9140   -23.8940 ca         1 OW5      -0.109500
     21 C16        -10.7360    -8.2370   -24.1050 ca         1 OW5      -0.108500
     22 C17        -10.4910    -9.2060   -23.1450 ca         1 OW5      -0.129500
     23 C18         -9.8550    -8.8940   -21.9450 ca         1 OW5      -0.072300
     24 C19         -9.4750    -7.5700   -21.7380 ca         1 OW5      -0.129500
     25 C20         -9.7170    -6.5950   -22.6920 ca         1 OW5      -0.108500
     26 C21         -9.5350    -9.9600   -20.9380 c3         1 OW5      -0.031100
     27 C22         -8.1750   -10.6100   -21.2050 c3         1 OW5      -0.074400
     28 C23         -7.8280   -11.6890   -20.1880 c3         1 OW5      -0.076400
     29 C24         -6.4730   -12.3380   -20.4450 c3         1 OW5      -0.075400
     30 C25         -6.1380   -13.4230   -19.4310 c3         1 OW5      -0.089100
     31 N10        -10.6430    -4.1290   -26.1290 na         1 OW5       0.103400
     32 N11        -11.4280    -5.0250   -26.6960 nd         1 OW5      -0.203800
     33 N12        -11.4080    -6.0880   -25.9690 nc         1 OW5      -0.357000
     34 N3S         -1.7400    -2.8430   -28.3450 ns         1 OW5      -0.696300
     35 O1S         -1.7970    -5.2870   -28.0160 o          1 OW5      -0.607800
     36 O2S         -3.1070    -3.8480   -26.4380 o          1 OW5      -0.607800
     37 O3          -7.0740    -1.2850   -29.3670 oh         1 OW5      -0.615800
     38 O4          -6.4090    -2.4000   -31.7460 oh         1 OW5      -0.596800
     39 O5          -6.0480    -5.1090   -30.6030 os         1 OW5      -0.385600
     40 O6          -3.9000    -4.1320   -28.6750 os         1 OW5      -0.547500
     41 S           -2.6130    -4.1280   -27.7560 s6         1 OW5       1.582100
     42 H1          -7.5320    -5.8340   -29.4610 h1         1 OW5       0.056700
     43 H2          -6.1780    -5.2180   -28.5250 h1         1 OW5       0.056700
     44 H3          -8.2090    -3.5870   -30.1080 hc         1 OW5       0.080700
     45 H4          -5.8220    -2.6560   -28.4670 h1         1 OW5       0.066700
     46 H5          -4.7920    -1.9930   -30.5200 h1         1 OW5       0.040700
     47 H6          -4.8040    -4.1820   -31.8610 h1         1 OW5       0.093700
     48 H7          -3.4660    -5.4130   -30.2540 h1         1 OW5       0.058700
     49 H8          -3.0030    -3.7210   -30.5120 h1         1 OW5       0.058700
     50 H9          -8.5040    -4.7070   -27.6350 hc         1 OW5       0.046700
     51 H10         -7.7350    -3.2190   -27.1530 hc         1 OW5       0.046700
     52 H11         -9.5410    -1.9550   -28.4710 hc         1 OW5       0.065200
     53 H12        -10.2970    -3.4950   -28.8020 hc         1 OW5       0.065200
     54 H13         -9.8460    -2.2410   -26.0490 h1         1 OW5       0.065700
     55 H14        -11.3810    -2.3540   -26.9030 h1         1 OW5       0.065700
     56 H16          0.3090    -1.5790   -29.8340 hn         1 OW5       0.367800
     57 H18         -1.2290     0.2990   -28.1800 h1         1 OW5       0.096700
     58 H19         -2.8060     0.3330   -30.0710 hc         1 OW5       0.048200
     59 H20         -1.8280    -0.8270   -30.9510 hc         1 OW5       0.048200
     60 H21          0.0300     0.7890   -31.0730 hc         1 OW5       0.058700
     61 H22         -0.3200     2.1130   -29.0240 hc         1 OW5       0.035033
     62 H23         -0.3540     3.1760   -30.4200 hc         1 OW5       0.035033
     63 H24         -1.8630     2.7090   -29.6360 hc         1 OW5       0.035033
     64 H25         -1.0490     2.3370   -32.6800 hc         1 OW5       0.035033
     65 H26         -1.6740     0.7020   -32.8790 hc         1 OW5       0.035033
     66 H27         -2.6390     1.9190   -32.0440 hc         1 OW5       0.035033
     67 H28         -9.4080    -4.0450   -24.4020 h4         1 OW5       0.185000
     68 H29        -11.2290    -8.5140   -25.0280 ha         1 OW5       0.137000
     69 H30        -10.7990   -10.2280   -23.3350 ha         1 OW5       0.129500
     70 H31         -8.9880    -7.2900   -20.8100 ha         1 OW5       0.129500
     71 H32         -9.4190    -5.5740   -22.4870 ha         1 OW5       0.137000
     72 H33         -9.5380    -9.5340   -19.9310 hc         1 OW5       0.046200
     73 H34        -10.3100   -10.7310   -20.9540 hc         1 OW5       0.046200
     74 H35         -8.1720   -11.0390   -22.2120 hc         1 OW5       0.042700
     75 H36         -7.4000    -9.8360   -21.2000 hc         1 OW5       0.042700
     76 H37         -7.8380   -11.2580   -19.1810 hc         1 OW5       0.036700
     77 H38         -8.6060   -12.4600   -20.1950 hc         1 OW5       0.036700
     78 H39         -6.4600   -12.7600   -21.4540 hc         1 OW5       0.037700
     79 H40         -5.6950   -11.5690   -20.4280 hc         1 OW5       0.037700
     80 H41         -5.1670   -13.8770   -19.6330 hc         1 OW5       0.031033
     81 H42         -6.1090   -13.0170   -18.4170 hc         1 OW5       0.031033
     82 H43         -6.8850   -14.2190   -19.4430 hc         1 OW5       0.031033
     83 H44         -0.7980    -3.0520   -28.6550 hn         1 OW5       0.342500
     84 H45         -7.2730    -1.0050   -28.4690 ho         1 OW5       0.416000
     85 H46         -6.8640    -1.5660   -31.5900 ho         1 OW5       0.428000
     86 H15          0.5900    -1.2780   -28.2300 hn         1 OW5       0.367800
@<TRIPOS>BOND
     1     1     2 1   
     2     1    39 1   
     3     1    42 1   
     4     1    43 1   
     5     2     3 1   
     6     2     7 1   
     7     2    44 1   
     8     3     4 1   
     9     3    37 1   
    10     3    45 1   
    11     4     5 1   
    12     4    38 1   
    13     4    46 1   
    14     5     6 1   
    15     5    39 1   
    16     5    47 1   
    17     6    40 1   
    18     6    48 1   
    19     6    49 1   
    20     7     8 1   
    21     7    50 1   
    22     7    51 1   
    23     8     9 1   
    24     8    52 1   
    25     8    53 1   
    26     9    31 1   
    27     9    54 1   
    28     9    55 1   
    29    10    11 1   
    30    10    56 1   
    31    10    86 1   
    32    11    12 1   
    33    11    14 1   
    34    11    57 1   
    35    12    13 2   
    36    12    34 1   
    37    14    15 1   
    38    14    58 1   
    39    14    59 1   
    40    15    16 1   
    41    15    17 1   
    42    15    60 1   
    43    16    61 1   
    44    16    62 1   
    45    16    63 1   
    46    17    64 1   
    47    17    65 1   
    48    17    66 1   
    49    18    19 2   
    50    18    20 1   
    51    18    33 1   
    52    19    31 1   
    53    19    67 1   
    54    20    21 ar  
    55    20    25 ar  
    56    21    22 ar  
    57    21    68 1   
    58    22    23 ar  
    59    22    69 1   
    60    23    24 ar  
    61    23    26 1   
    62    24    25 ar  
    63    24    70 1   
    64    25    71 1   
    65    26    27 1   
    66    26    72 1   
    67    26    73 1   
    68    27    28 1   
    69    27    74 1   
    70    27    75 1   
    71    28    29 1   
    72    28    76 1   
    73    28    77 1   
    74    29    30 1   
    75    29    78 1   
    76    29    79 1   
    77    30    80 1   
    78    30    81 1   
    79    30    82 1   
    80    31    32 1   
    81    32    33 2   
    82    34    41 1   
    83    34    83 1   
    84    35    41 2   
    85    36    41 2   
    86    37    84 1   
    87    38    85 1   
    88    40    41 1   
@<TRIPOS>SUBSTRUCTURE
     1 OW5         1 TEMP              0 ****  ****    0 ROOT
