@<TRIPOS>MOLECULE
OW5
   86    88     1     0     0
SMALL
No Charge or Current Charge


@<TRIPOS>ATOM
      1 C1          -5.3830    -5.2540   -28.4070 c6         1 OW5       0.162600
      2 C2          -6.3200    -4.0350   -28.6530 c6         1 OW5      -0.120700
      3 C3          -5.5300    -2.8760   -29.3560 c6         1 OW5       0.140300
      4 C4          -4.7140    -3.3820   -30.5920 c6         1 OW5       0.164300
      5 C5          -3.9000    -4.6770   -30.2720 c6         1 OW5       0.174300
      6 C6          -2.5640    -4.4510   -29.4800 c3         1 OW5       0.174600
      7 C7          -6.9950    -3.6350   -27.2950 c3         1 OW5      -0.075400
      8 C8          -8.2030    -2.6640   -27.3660 c3         1 OW5      -0.095400
      9 C9          -8.9210    -2.4530   -26.0110 c3         1 OW5       0.083600
     10 N           -0.3410     0.7290   -29.7660 n8         1 OW5      -1.044200
     11 CA          -1.8030     0.4950   -29.4550 c3         1 OW5       0.114500
     12 C           -2.1400    -0.6350   -28.4150 c          1 OW5       0.584100
     13 O           -3.1110    -0.5630   -27.6790 o          1 OW5      -0.538100
     14 CB          -2.6120     0.2600   -30.7620 c3         1 OW5      -0.067400
     15 CG          -2.6120     1.4270   -31.7930 c3         1 OW5      -0.052700
     16 CD1         -3.2350     2.7270   -31.2300 c3         1 OW5      -0.089100
     17 CD2         -3.3240     1.0030   -33.0980 c3         1 OW5      -0.089100
     18 C13        -10.0900    -5.4460   -24.4270 cc         1 OW5       0.262500
     19 C14         -9.0980    -4.5200   -24.5180 cd         1 OW5      -0.206000
     20 C15        -10.0280    -6.6020   -23.5160 ca         1 OW5      -0.109500
     21 C16        -11.0180    -7.6080   -23.5820 ca         1 OW5      -0.090500
     22 C17        -10.9820    -8.7120   -22.7130 ca         1 OW5      -0.111500
     23 C18         -9.9620    -8.8310   -21.7540 ca         1 OW5      -0.072300
     24 C19         -8.9760    -7.8320   -21.6750 ca         1 OW5      -0.111500
     25 C20         -9.0090    -6.7260   -22.5430 ca         1 OW5      -0.090500
     26 C21         -9.9210   -10.0300   -20.8160 c3         1 OW5      -0.031100
     27 C22         -9.0970   -11.1960   -21.4020 c3         1 OW5      -0.074400
     28 C23         -9.0390   -12.4270   -20.4700 c3         1 OW5      -0.076400
     29 C24         -8.2130   -13.5920   -21.0590 c3         1 OW5      -0.075400
     30 C25         -8.1550   -14.8200   -20.1300 c3         1 OW5      -0.089100
     31 N10         -9.5760    -3.6610   -25.4830 na         1 OW5       0.124800
     32 N11        -10.8080    -4.0750   -25.9350 nd         1 OW5      -0.203800
     33 N12        -11.1150    -5.1710   -25.2850 nc         1 OW5      -0.357000
     34 N3S         -1.2630    -1.6770   -28.3730 ns         1 OW5      -0.629300
     35 O1S         -0.2770    -3.9440   -27.8640 o          1 OW5      -0.537000
     36 O2S         -1.7710    -2.7910   -26.1380 o          1 OW5      -0.537000
     37 O3          -6.4350    -1.8600   -29.8310 oh         1 OW5      -0.678000
     38 O4          -5.6590    -3.6000   -31.6530 oh         1 OW5      -0.719000
     39 O5          -4.7440    -5.6740   -29.6310 os         1 OW5      -0.432000
     40 O6          -2.7640    -3.6550   -28.2980 os         1 OW5      -0.570700
     41 S           -1.4250    -3.0960   -27.5300 s6         1 OW5       1.440500
     42 H1          -5.9750    -6.0980   -28.0250 h1         1 OW5       0.056700
     43 H2          -4.6290    -5.0220   -27.6430 h1         1 OW5       0.056700
     44 H3          -7.1260    -4.3720   -29.3190 hc         1 OW5       0.080700
     45 H4          -4.8290    -2.4400   -28.6290 h1         1 OW5       0.066700
     46 H5          -4.0080    -2.5920   -30.8900 h1         1 OW5       0.040700
     47 H6          -3.5900    -5.1030   -31.2370 h1         1 OW5       0.093700
     48 H7          -2.1350    -5.4300   -29.2270 h1         1 OW5       0.058700
     49 H8          -1.8660    -3.9500   -30.1660 h1         1 OW5       0.058700
     50 H9          -7.3400    -4.5540   -26.8060 hc         1 OW5       0.046700
     51 H10         -6.2410    -3.2080   -26.6220 hc         1 OW5       0.046700
     52 H11         -7.8670    -1.6810   -27.7110 hc         1 OW5       0.065200
     53 H12         -8.9280    -3.0310   -28.1040 hc         1 OW5       0.065200
     54 H13         -8.2000    -2.0920   -25.2680 h1         1 OW5       0.065700
     55 H14         -9.6870    -1.6760   -26.1300 h1         1 OW5       0.065700
     56 H16          0.0560    -0.0650   -30.2830 hn         1 OW5       0.423000
     57 H18         -2.1850     1.4100   -28.9790 h1         1 OW5       0.096700
     58 H19         -3.6540     0.0430   -30.4920 hc         1 OW5       0.048200
     59 H20         -2.2310    -0.6470   -31.2470 hc         1 OW5       0.048200
     60 H21         -1.5700     1.6480   -32.0570 hc         1 OW5       0.058700
     61 H22         -2.6510     3.1140   -30.3860 hc         1 OW5       0.035033
     62 H23         -3.2570     3.5090   -31.9990 hc         1 OW5       0.035033
     63 H24         -4.2630     2.5540   -30.8900 hc         1 OW5       0.035033
     64 H25         -3.2790     1.8070   -33.8440 hc         1 OW5       0.035033
     65 H26         -2.8480     0.1160   -33.5310 hc         1 OW5       0.035033
     66 H27         -4.3790     0.7690   -32.9100 hc         1 OW5       0.035033
     67 H28         -8.1450    -4.4060   -24.0200 h4         1 OW5       0.167000
     68 H29        -11.8200    -7.5430   -24.3140 ha         1 OW5       0.119000
     69 H30        -11.7510    -9.4780   -22.7880 ha         1 OW5       0.111500
     70 H31         -8.1810    -7.9100   -20.9370 ha         1 OW5       0.111500
     71 H32         -8.2350    -5.9710   -22.4450 ha         1 OW5       0.119000
     72 H33         -9.4930    -9.7360   -19.8490 hc         1 OW5       0.046200
     73 H34        -10.9400   -10.3780   -20.6060 hc         1 OW5       0.046200
     74 H35         -9.5300   -11.4920   -22.3650 hc         1 OW5       0.042700
     75 H36         -8.0760   -10.8470   -21.6040 hc         1 OW5       0.042700
     76 H37         -8.6050   -12.1300   -19.5070 hc         1 OW5       0.036700
     77 H38        -10.0600   -12.7750   -20.2690 hc         1 OW5       0.036700
     78 H39         -8.6450   -13.8940   -22.0220 hc         1 OW5       0.037700
     79 H40         -7.1910   -13.2480   -21.2600 hc         1 OW5       0.037700
     80 H41         -7.5600   -15.6190   -20.5890 hc         1 OW5       0.031033
     81 H42         -7.6950   -14.5590   -19.1690 hc         1 OW5       0.031033
     82 H43         -9.1620   -15.2100   -19.9380 hc         1 OW5       0.031033
     83 H44         -0.4840    -1.7140   -29.0030 hn         1 OW5       0.342500
     84 H45         -6.4610    -1.1580   -29.1440 ho         1 OW5       0.455000
     85 H46         -6.3820    -2.9710   -31.3960 ho         1 OW5       0.527000
     86 H15          0.2060     0.7670   -28.8940 hn         1 OW5       0.423000
@<TRIPOS>BOND
     1     1     2 1   
     2     1    39 1   
     3     1    42 1   
     4     1    43 1   
     5     2     3 1   
     6     2     7 1   
     7     2    44 1   
     8     3     4 1   
     9     3    37 1   
    10     3    45 1   
    11     4     5 1   
    12     4    38 1   
    13     4    46 1   
    14     5     6 1   
    15     5    39 1   
    16     5    47 1   
    17     6    40 1   
    18     6    48 1   
    19     6    49 1   
    20     7     8 1   
    21     7    50 1   
    22     7    51 1   
    23     8     9 1   
    24     8    52 1   
    25     8    53 1   
    26     9    31 1   
    27     9    54 1   
    28     9    55 1   
    29    10    11 1   
    30    10    56 1   
    31    10    86 1   
    32    11    12 1   
    33    11    14 1   
    34    11    57 1   
    35    12    13 2   
    36    12    34 1   
    37    14    15 1   
    38    14    58 1   
    39    14    59 1   
    40    15    16 1   
    41    15    17 1   
    42    15    60 1   
    43    16    61 1   
    44    16    62 1   
    45    16    63 1   
    46    17    64 1   
    47    17    65 1   
    48    17    66 1   
    49    18    19 2   
    50    18    20 1   
    51    18    33 1   
    52    19    31 1   
    53    19    67 1   
    54    20    21 ar  
    55    20    25 ar  
    56    21    22 ar  
    57    21    68 1   
    58    22    23 ar  
    59    22    69 1   
    60    23    24 ar  
    61    23    26 1   
    62    24    25 ar  
    63    24    70 1   
    64    25    71 1   
    65    26    27 1   
    66    26    72 1   
    67    26    73 1   
    68    27    28 1   
    69    27    74 1   
    70    27    75 1   
    71    28    29 1   
    72    28    76 1   
    73    28    77 1   
    74    29    30 1   
    75    29    78 1   
    76    29    79 1   
    77    30    80 1   
    78    30    81 1   
    79    30    82 1   
    80    31    32 1   
    81    32    33 2   
    82    34    41 1   
    83    34    83 1   
    84    35    41 2   
    85    36    41 2   
    86    37    84 1   
    87    38    85 1   
    88    40    41 1   
@<TRIPOS>SUBSTRUCTURE
     1 OW5         1 TEMP              0 ****  ****    0 ROOT
