@<TRIPOS>MOLECULE
OW6
   60    63     1     0     0
SMALL
abcg2


@<TRIPOS>ATOM
      1 C10         32.3270    32.2000    23.1410 ca         1 OW6      -0.044600
      2 O11         34.3440    32.7970    24.2020 o          1 OW6      -0.697500
      3 C01         30.9810    35.2170    21.3510 ca         1 OW6      -0.118800
      4 C02         29.5860    34.9360    21.4470 ca         1 OW6      -0.090000
      5 C03         29.1330    33.8050    22.0620 ca         1 OW6      -0.111000
      6 C04         30.0380    32.8700    22.6270 ca         1 OW6       0.277000
      7 C05         31.4370    33.1400    22.5530 ca         1 OW6      -0.066000
      8 C06         31.8710    34.3180    21.9090 ca         1 OW6      -0.008000
      9 C08         30.4010    30.8860    23.7230 ca         1 OW6       0.316500
     10 C09         31.7930    31.0770    23.7270 ca         1 OW6      -0.130000
     11 C12         33.8320    32.4210    23.1230 c          1 OW6       0.705600
     12 C13         31.5030    36.4000    20.6790 ce         1 OW6      -0.086200
     13 C15         29.8400    29.6210    24.3310 c          1 OW6       0.517600
     14 C16         27.6420    28.5140    24.8150 c3         1 OW6       0.037700
     15 C17         28.0520    27.9340    26.1940 c3         1 OW6      -0.032100
     16 C19         27.5610    27.3860    23.7820 c          1 OW6       0.570100
     17 C20         28.0490    28.9870    27.2700 ca         1 OW6      -0.114300
     18 C22         29.2430    30.5260    28.7190 ca         1 OW6      -0.168500
     19 C23         29.2400    29.5390    27.7420 ca         1 OW6      -0.064500
     20 C24         26.8500    29.4570    27.8070 ca         1 OW6      -0.064500
     21 C25         26.8340    30.4450    28.7840 ca         1 OW6      -0.168500
     22 C26         28.0360    30.9830    29.2420 ca         1 OW6       0.128100
     23 C29         30.7840    37.3620    20.0800 cf         1 OW6      -0.216200
     24 C30         31.3110    38.5370    19.3920 ca         1 OW6      -0.017800
     25 C31         32.6830    38.8020    19.2500 ca         1 OW6      -0.105000
     26 C32         33.1310    39.9290    18.5830 ca         1 OW6      -0.102000
     27 C33         32.2050    40.8160    18.0440 ca         1 OW6       0.110000
     28 C34         30.8420    40.5890    18.1650 ca         1 OW6      -0.102000
     29 C35         30.4080    39.4540    18.8350 ca         1 OW6      -0.105000
     30 C38         25.2650    26.9430    24.4990 c3         1 OW6       0.167900
     31 N07         29.5470    31.7500    23.2060 nb         1 OW6      -0.727000
     32 N14         28.4950    29.5870    24.3540 ns         1 OW6      -0.491900
     33 O18         30.5860    28.7430    24.7600 o          1 OW6      -0.601100
     34 O27         28.0840    31.9540    30.2020 oh         1 OW6      -0.538100
     35 O28         34.4060    32.1970    22.0340 o          1 OW6      -0.697500
     36 CL3         32.7720    42.2400    17.1980 cl         1 OW6      -0.234000
     37 H021        28.8700    35.6260    21.0220 ha         1 OW6       0.098000
     38 H031        28.0730    33.5920    22.1280 ha         1 OW6       0.110000
     39 H061        32.9340    34.5130    21.8390 ha         1 OW6       0.146000
     40 H091        32.4230    30.3300    24.1880 ha         1 OW6       0.151000
     41 H131        32.5860    36.4690    20.6790 ha         1 OW6       0.176000
     42 H161        26.6530    28.9560    24.9220 h1         1 OW6       0.051700
     43 H171        27.3460    27.1420    26.4450 hc         1 OW6       0.068700
     44 H172        29.0360    27.4840    26.1060 hc         1 OW6       0.068700
     45 H221        30.1720    30.9480    29.0800 ha         1 OW6       0.120000
     46 H231        30.1820    29.1950    27.3330 ha         1 OW6       0.120500
     47 H241        25.9100    29.0450    27.4590 ha         1 OW6       0.120500
     48 H251        25.8950    30.7970    29.1950 ha         1 OW6       0.120000
     49 H291        29.7010    37.2950    20.0820 ha         1 OW6       0.169000
     50 H311        33.4160    38.1210    19.6610 ha         1 OW6       0.119500
     51 H321        34.1910    40.1200    18.4800 ha         1 OW6       0.122500
     52 H341        30.1310    41.2850    17.7410 ha         1 OW6       0.122500
     53 H351        29.3440    39.2720    18.9300 ha         1 OW6       0.119500
     54 H381        24.5630    26.1480    24.2640 h1         1 OW6       0.041033
     55 H383        25.4330    26.9740    25.5730 h1         1 OW6       0.041033
     56 H382        24.8710    27.8960    24.1460 h1         1 OW6       0.041033
     57 H141        28.0490    30.3870    23.9260 hn         1 OW6       0.348500
     58 H271        27.1860    32.1840    30.4790 ho         1 OW6       0.455000
     59 O21         28.4450    27.1400    22.9970 o          1 OW6      -0.398000
     60 O37         26.4720    26.6020    23.7830 os         1 OW6      -0.466100
@<TRIPOS>BOND
     1     1     7 ar  
     2     1    10 ar  
     3     1    11 1   
     4     2    11 1   
     5     3     4 ar  
     6     3     8 ar  
     7     3    12 1   
     8     4     5 ar  
     9     4    37 1   
    10     5     6 ar  
    11     5    38 1   
    12     6     7 ar  
    13     6    31 ar  
    14     7     8 ar  
    15     8    39 1   
    16     9    10 ar  
    17     9    13 1   
    18     9    31 ar  
    19    10    40 1   
    20    11    35 1   
    21    12    23 2   
    22    12    41 1   
    23    13    32 1   
    24    13    33 2   
    25    14    15 1   
    26    14    16 1   
    27    14    32 1   
    28    14    42 1   
    29    15    17 1   
    30    15    43 1   
    31    15    44 1   
    32    16    59 2   
    33    16    60 1   
    34    17    19 ar  
    35    17    20 ar  
    36    18    19 ar  
    37    18    22 ar  
    38    18    45 1   
    39    19    46 1   
    40    20    21 ar  
    41    20    47 1   
    42    21    22 ar  
    43    21    48 1   
    44    22    34 1   
    45    23    24 1   
    46    23    49 1   
    47    24    25 ar  
    48    24    29 ar  
    49    25    26 ar  
    50    25    50 1   
    51    26    27 ar  
    52    26    51 1   
    53    27    28 ar  
    54    27    36 1   
    55    28    29 ar  
    56    28    52 1   
    57    29    53 1   
    58    30    54 1   
    59    30    55 1   
    60    30    56 1   
    61    30    60 1   
    62    32    57 1   
    63    34    58 1   
@<TRIPOS>SUBSTRUCTURE
     1 OW6         1 TEMP              0 ****  ****    0 ROOT
