@<TRIPOS>MOLECULE
OW6
   60    63     1     0     0
SMALL
No Charge or Current Charge


@<TRIPOS>ATOM
      1 C10         32.3420    32.0080    22.9520 ca         1 OW6      -0.044600
      2 O11         34.4800    32.0700    23.9210 o          1 OW6      -0.697500
      3 C01         30.9640    35.1450    21.3920 ca         1 OW6      -0.118800
      4 C02         29.5850    34.8780    21.4890 ca         1 OW6      -0.090000
      5 C03         29.1370    33.6800    22.0670 ca         1 OW6      -0.111000
      6 C04         30.0410    32.7220    22.5570 ca         1 OW6       0.277000
      7 C05         31.4320    32.9780    22.4560 ca         1 OW6      -0.066000
      8 C06         31.8780    34.1920    21.8820 ca         1 OW6      -0.008000
      9 C08         30.4160    30.6560    23.6090 ca         1 OW6       0.316500
     10 C09         31.8080    30.8440    23.5390 ca         1 OW6      -0.130000
     11 C12         33.8440    32.1650    22.8800 c          1 OW6       0.705600
     12 C13         31.4780    36.4140    20.7920 ce         1 OW6      -0.086200
     13 C15         29.8490    29.3770    24.2480 c          1 OW6       0.517600
     14 C16         27.6230    28.2460    24.8890 c3         1 OW6       0.037700
     15 C17         28.0020    27.9320    26.3650 c3         1 OW6      -0.032100
     16 C19         27.5780    26.9550    23.9920 c          1 OW6       0.570100
     17 C20         28.0580    29.1790    27.2440 ca         1 OW6      -0.114300
     18 C22         29.3360    30.8030    28.5420 ca         1 OW6      -0.168500
     19 C23         29.2900    29.6490    27.7400 ca         1 OW6      -0.064500
     20 C24         26.8740    29.8730    27.5640 ca         1 OW6      -0.064500
     21 C25         26.9220    31.0260    28.3680 ca         1 OW6      -0.168500
     22 C26         28.1540    31.4900    28.8550 ca         1 OW6       0.128100
     23 C29         30.7940    37.3830    20.1160 cf         1 OW6      -0.216200
     24 C30         31.2860    38.6400    19.5160 ca         1 OW6      -0.017800
     25 C31         32.6430    39.0240    19.5880 ca         1 OW6      -0.105000
     26 C32         33.0760    40.2290    19.0060 ca         1 OW6      -0.102000
     27 C33         32.1580    41.0610    18.3460 ca         1 OW6       0.110000
     28 C34         30.8070    40.6910    18.2680 ca         1 OW6      -0.102000
     29 C35         30.3740    39.4860    18.8500 ca         1 OW6      -0.105000
     30 C38         25.2230    26.6330    24.6960 c3         1 OW6       0.167900
     31 N07         29.5510    31.5920    23.1150 nb         1 OW6      -0.727000
     32 N14         28.4640    29.3080    24.2750 ns         1 OW6      -0.491900
     33 O18         30.5570    28.4800    24.6960 o          1 OW6      -0.601100
     34 O27         28.2090    32.6060    29.6350 oh         1 OW6      -0.538100
     35 O28         34.3640    32.3040    21.7820 o          1 OW6      -0.697500
     36 Cl3         32.7010    42.5670    17.6190 cl         1 OW6      -0.234000
     37 H021        28.8490    35.5920    21.1320 ha         1 OW6       0.098000
     38 H031        28.0690    33.4930    22.1410 ha         1 OW6       0.110000
     39 H061        32.9400    34.4090    21.8130 ha         1 OW6       0.146000
     40 H091        32.4760    30.0830    23.9350 ha         1 OW6       0.151000
     41 H131        32.5510    36.5490    20.9260 ha         1 OW6       0.176000
     42 H161        26.6170    28.6780    24.9040 h1         1 OW6       0.051700
     43 H171        27.2780    27.2260    26.7880 hc         1 OW6       0.068700
     44 H172        28.9600    27.4000    26.3920 hc         1 OW6       0.068700
     45 H221        30.2900    31.1620    28.9210 ha         1 OW6       0.120000
     46 H231        30.2130    29.1250    27.5010 ha         1 OW6       0.120500
     47 H241        25.9150    29.5190    27.1900 ha         1 OW6       0.120500
     48 H251        26.0010    31.5510    28.6060 ha         1 OW6       0.120000
     49 H291        29.7250    37.2310    19.9770 ha         1 OW6       0.169000
     50 H311        33.3740    38.3990    20.0930 ha         1 OW6       0.119500
     51 H321        34.1220    40.5170    19.0660 ha         1 OW6       0.122500
     52 H341        30.0970    41.3360    17.7570 ha         1 OW6       0.122500
     53 H351        29.3240    39.2120    18.7820 ha         1 OW6       0.119500
     54 H381        24.4350    25.8770    24.5890 h1         1 OW6       0.041033
     55 H383        25.3790    26.7930    25.7690 h1         1 OW6       0.041033
     56 H382        24.8510    27.5630    24.2460 h1         1 OW6       0.041033
     57 H141        28.0030    30.1160    23.8650 hn         1 OW6       0.348500
     58 H271        27.2970    32.9510    29.7480 ho         1 OW6       0.455000
     59 O21         28.5000    26.6290    23.2590 o          1 OW6      -0.398000
     60 O37         26.4280    26.1850    24.0400 os         1 OW6      -0.466100
@<TRIPOS>BOND
     1     1     7 ar  
     2     1    10 ar  
     3     1    11 1   
     4     2    11 1   
     5     3     4 ar  
     6     3     8 ar  
     7     3    12 1   
     8     4     5 ar  
     9     4    37 1   
    10     5     6 ar  
    11     5    38 1   
    12     6     7 ar  
    13     6    31 ar  
    14     7     8 ar  
    15     8    39 1   
    16     9    10 ar  
    17     9    13 1   
    18     9    31 ar  
    19    10    40 1   
    20    11    35 1   
    21    12    23 2   
    22    12    41 1   
    23    13    32 1   
    24    13    33 2   
    25    14    15 1   
    26    14    16 1   
    27    14    32 1   
    28    14    42 1   
    29    15    17 1   
    30    15    43 1   
    31    15    44 1   
    32    16    59 2   
    33    16    60 1   
    34    17    19 ar  
    35    17    20 ar  
    36    18    19 ar  
    37    18    22 ar  
    38    18    45 1   
    39    19    46 1   
    40    20    21 ar  
    41    20    47 1   
    42    21    22 ar  
    43    21    48 1   
    44    22    34 1   
    45    23    24 1   
    46    23    49 1   
    47    24    25 ar  
    48    24    29 ar  
    49    25    26 ar  
    50    25    50 1   
    51    26    27 ar  
    52    26    51 1   
    53    27    28 ar  
    54    27    36 1   
    55    28    29 ar  
    56    28    52 1   
    57    29    53 1   
    58    30    54 1   
    59    30    55 1   
    60    30    56 1   
    61    30    60 1   
    62    32    57 1   
    63    34    58 1   
@<TRIPOS>SUBSTRUCTURE
     1 OW6         1 TEMP              0 ****  ****    0 ROOT
