@<TRIPOS>MOLECULE
OW7
   21    21     1     0     0
SMALL
abcg2


@<TRIPOS>ATOM
      1 C10          2.6630    -0.6740    -0.0180 c          1 OW7       0.712600
      2 C01         -4.5290    -1.0140    -0.0090 c3         1 OW7      -0.091100
      3 C02         -3.4510     0.0430    -0.0120 c3         1 OW7       0.169600
      4 C04         -1.0680     0.1420    -0.0220 ca         1 OW7       0.098100
      5 C05         -1.0570     1.5350    -0.0180 ca         1 OW7      -0.225000
      6 C06          0.1650     2.2020    -0.0160 ca         1 OW7      -0.118000
      7 C07          1.3610     1.5070    -0.0170 ca         1 OW7      -0.115000
      8 C08          1.3550     0.1120    -0.0210 ca         1 OW7      -0.106600
      9 C09          0.1400    -0.5560    -0.0250 ca         1 OW7      -0.115000
     10 O11          3.7130    -0.0050    -0.0050 o          1 OW7      -0.719500
     11 O12          2.5710    -1.9170    -0.0290 o          1 OW7      -0.719500
     12 H1          -5.5070    -0.5340    -0.0000 hc         1 OW7       0.036367
     13 H2          -4.4730    -1.6430    -0.8980 hc         1 OW7       0.036367
     14 H3          -4.4600    -1.6510     0.8730 hc         1 OW7       0.036367
     15 H4          -3.5520     0.6890    -0.8910 h1         1 OW7       0.021700
     16 H5          -3.5400     0.6820     0.8740 h1         1 OW7       0.021700
     17 H6          -1.9710     2.1130    -0.0170 ha         1 OW7       0.086000
     18 H7           0.1680     3.2850    -0.0140 ha         1 OW7       0.081000
     19 H8           2.3010     2.0420    -0.0120 ha         1 OW7       0.127000
     20 H9           0.1230    -1.6390    -0.0280 ha         1 OW7       0.140000
     21 O03         -2.1900    -0.6090    -0.0230 os         1 OW7      -0.358100
@<TRIPOS>BOND
     1     1     8 1   
     2     1    10 1   
     3     1    11 1   
     4     2     3 1   
     5     2    12 1   
     6     2    13 1   
     7     2    14 1   
     8     3    15 1   
     9     3    16 1   
    10     3    21 1   
    11     4     5 ar  
    12     4     9 ar  
    13     4    21 1   
    14     5     6 ar  
    15     5    17 1   
    16     6     7 ar  
    17     6    18 1   
    18     7     8 ar  
    19     7    19 1   
    20     8     9 ar  
    21     9    20 1   
@<TRIPOS>SUBSTRUCTURE
     1 OW7         1 TEMP              0 ****  ****    0 ROOT
