@<TRIPOS>MOLECULE
OW7
   21    21     1     0     0
SMALL
No Charge or Current Charge


@<TRIPOS>ATOM
      1 C10          2.7100    -0.6810    -0.0230 c          1 OW7       0.712600
      2 C01         -4.5860    -1.0430    -0.0120 c3         1 OW7      -0.091100
      3 C02         -3.5190     0.0640    -0.0120 c3         1 OW7       0.169600
      4 C04         -1.0530     0.1480    -0.0160 ca         1 OW7       0.098100
      5 C05         -1.0310     1.5590    -0.0130 ca         1 OW7      -0.225000
      6 C06          0.1980     2.2370    -0.0140 ca         1 OW7      -0.118000
      7 C07          1.4050     1.5180    -0.0170 ca         1 OW7      -0.115000
      8 C08          1.4040     0.1030    -0.0190 ca         1 OW7      -0.106600
      9 C09          0.1560    -0.5670    -0.0190 ca         1 OW7      -0.115000
     10 O11          3.7660    -0.0620    -0.0230 o          1 OW7      -0.719500
     11 O12          2.6610    -1.9030    -0.0250 o          1 OW7      -0.719500
     12 H1          -5.5890    -0.6010    -0.0100 hc         1 OW7       0.036367
     13 H2          -4.4900    -1.6730    -0.9040 hc         1 OW7       0.036367
     14 H3          -4.4870    -1.6760     0.8780 hc         1 OW7       0.036367
     15 H4          -3.6450     0.6920    -0.9040 h1         1 OW7       0.021700
     16 H5          -3.6420     0.6890     0.8820 h1         1 OW7       0.021700
     17 H6          -1.9470     2.1410    -0.0110 ha         1 OW7       0.086000
     18 H7           0.2170     3.3250    -0.0120 ha         1 OW7       0.081000
     19 H8           2.3450     2.0660    -0.0170 ha         1 OW7       0.127000
     20 H9           0.1200    -1.6530    -0.0210 ha         1 OW7       0.140000
     21 O03         -2.2290    -0.5730    -0.0150 os         1 OW7      -0.358100
@<TRIPOS>BOND
     1     1     8 1   
     2     1    10 1   
     3     1    11 1   
     4     2     3 1   
     5     2    12 1   
     6     2    13 1   
     7     2    14 1   
     8     3    15 1   
     9     3    16 1   
    10     3    21 1   
    11     4     5 ar  
    12     4     9 ar  
    13     4    21 1   
    14     5     6 ar  
    15     5    17 1   
    16     6     7 ar  
    17     6    18 1   
    18     7     8 ar  
    19     7    19 1   
    20     8     9 ar  
    21     9    20 1   
@<TRIPOS>SUBSTRUCTURE
     1 OW7         1 TEMP              0 ****  ****    0 ROOT
