@<TRIPOS>MOLECULE
OW8
   23    24     1     0     0
SMALL
bcc


@<TRIPOS>ATOM
      1 C01         21.7970   -29.0900    25.6750 c3         1 OW8       0.098300
      2 C03         22.7470   -26.8620    25.9600 c          1 OW8       0.596600
      3 C04         22.4780   -25.4490    26.2950 cc         1 OW8       0.284800
      4 C05         23.4040   -24.3960    26.3290 cc         1 OW8      -0.213600
      5 C06         24.8450   -24.0410    26.1700 c5         1 OW8       0.010900
      6 C07         24.7890   -22.4880    26.1560 c5         1 OW8      -0.079400
      7 C08         23.4580   -22.0520    26.8300 c5         1 OW8      -0.004100
      8 C09         22.6660   -23.3030    26.6870 cd         1 OW8      -0.133600
      9 N02         21.6920   -27.6860    25.9890 ns         1 OW8      -0.564900
     10 N10         21.3980   -23.7140    26.8450 na         1 OW8       0.031400
     11 N11         21.2610   -25.0110    26.6060 nd         1 OW8      -0.527800
     12 O12         23.8830   -27.2290    25.6780 o          1 OW8      -0.604100
     13 H1          20.8230   -29.5490    25.8260 h1         1 OW8       0.038700
     14 H2          22.0980   -29.2560    24.6400 h1         1 OW8       0.038700
     15 H3          22.5150   -29.5930    26.3230 h1         1 OW8       0.038700
     16 H4          25.4380   -24.4150    27.0090 hc         1 OW8       0.063700
     17 H5          25.2990   -24.4390    25.2620 hc         1 OW8       0.063700
     18 H6          25.6550   -22.0370    26.6380 hc         1 OW8       0.047700
     19 H7          24.7840   -22.1440    25.1200 hc         1 OW8       0.047700
     20 H8          23.5980   -21.7950    27.8840 hc         1 OW8       0.056200
     21 H9          23.0140   -21.1850    26.3420 hc         1 OW8       0.056200
     22 H10         20.7880   -27.3030    26.2120 hn         1 OW8       0.331500
     23 H11         20.5900   -23.1670    27.0990 hn         1 OW8       0.323700
@<TRIPOS>BOND
     1     1     9 1   
     2     1    13 1   
     3     1    14 1   
     4     1    15 1   
     5     2     3 1   
     6     2     9 1   
     7     2    12 2   
     8     3     4 1   
     9     3    11 2   
    10     4     5 1   
    11     4     8 2   
    12     5     6 1   
    13     5    16 1   
    14     5    17 1   
    15     6     7 1   
    16     6    18 1   
    17     6    19 1   
    18     7     8 1   
    19     7    20 1   
    20     7    21 1   
    21     8    10 1   
    22     9    22 1   
    23    10    11 1   
    24    10    23 1   
@<TRIPOS>SUBSTRUCTURE
     1 OW8         1 TEMP              0 ****  ****    0 ROOT
