@<TRIPOS>MOLECULE
OW8
   23    24     1     0     0
SMALL
No Charge or Current Charge


@<TRIPOS>ATOM
      1 C01         21.9230   -29.1280    25.7470 c3         1 OW8       0.098300
      2 C03         22.7930   -26.7650    25.8920 c          1 OW8       0.529600
      3 C04         22.3550   -25.3610    26.2210 cc         1 OW8       0.219500
      4 C05         23.2120   -24.2460    26.1990 cc         1 OW8      -0.148300
      5 C06         24.6810   -24.1340    26.0320 c5         1 OW8       0.010900
      6 C07         24.8780   -22.5770    26.2400 c5         1 OW8      -0.079400
      7 C08         23.4950   -22.0390    26.8260 c5         1 OW8      -0.004100
      8 C09         22.5450   -23.1690    26.5510 cd         1 OW8      -0.184300
      9 N02         21.7770   -27.6950    26.0070 ns         1 OW8      -0.497900
     10 N10         21.2570   -23.5990    26.8630 na         1 OW8       0.031800
     11 N11         21.1260   -24.9840    26.6080 nd         1 OW8      -0.527800
     12 O12         23.9240   -27.0980    25.5500 o          1 OW8      -0.604100
     13 H1          20.9620   -29.6310    25.9140 h1         1 OW8       0.038700
     14 H2          22.2370   -29.2840    24.7060 h1         1 OW8       0.038700
     15 H3          22.6770   -29.5510    26.4240 h1         1 OW8       0.038700
     16 H4          25.2140   -24.7180    26.7910 hc         1 OW8       0.063700
     17 H5          25.0180   -24.4680    25.0440 hc         1 OW8       0.063700
     18 H6          25.7220   -22.3520    26.9010 hc         1 OW8       0.047700
     19 H7          25.0930   -22.0940    25.2800 hc         1 OW8       0.047700
     20 H8          23.5740   -21.8370    27.9010 hc         1 OW8       0.056200
     21 H9          23.1880   -21.1030    26.3460 hc         1 OW8       0.056200
     22 H10         20.8730   -27.3330    26.2940 hn         1 OW8       0.331500
     23 H11         20.4930   -23.0370    27.2390 hn         1 OW8       0.374000
@<TRIPOS>BOND
     1     1     9 1   
     2     1    13 1   
     3     1    14 1   
     4     1    15 1   
     5     2     3 1   
     6     2     9 1   
     7     2    12 2   
     8     3     4 1   
     9     3    11 2   
    10     4     5 1   
    11     4     8 2   
    12     5     6 1   
    13     5    16 1   
    14     5    17 1   
    15     6     7 1   
    16     6    18 1   
    17     6    19 1   
    18     7     8 1   
    19     7    20 1   
    20     7    21 1   
    21     8    10 1   
    22     9    22 1   
    23    10    11 1   
    24    10    23 1   
@<TRIPOS>SUBSTRUCTURE
     1 OW8         1 TEMP              0 ****  ****    0 ROOT
