@<TRIPOS>MOLECULE
OWA
   25    25     1     0     0
SMALL
No Charge or Current Charge


@<TRIPOS>ATOM
      1 C02         -1.8860     0.9220    -0.2250 c          1 OWA       0.564000
      2 C04         -3.8970    -0.5340    -0.0220 c3         1 OWA       0.095300
      3 C05         -1.4610    -1.4480    -0.0480 c5         1 OWA       0.097000
      4 C06         -0.1810    -0.6640     0.3960 c5         1 OWA      -0.068700
      5 C07          1.1520    -1.3980     0.0980 c3         1 OWA      -0.133400
      6 C08          2.3680    -0.5690     0.5230 c          1 OWA       0.591100
      7 C10          4.0710     0.9360    -0.2800 c3         1 OWA       0.152900
      8 C12         -0.3890     0.6750    -0.3700 c5         1 OWA      -0.165400
      9 N03         -2.4440    -0.3560    -0.1940 n          1 OWA      -0.417800
     10 O01         -2.4820     1.9540     0.0460 o          1 OWA      -0.548000
     11 O09          2.9220     0.1060    -0.5340 os         1 OWA      -0.446100
     12 O11          2.7860    -0.5200     1.6720 o          1 OWA      -0.483000
     13 H042        -4.4370     0.0660    -0.7660 h1         1 OWA       0.042700
     14 H041        -4.1630    -1.5900    -0.1560 h1         1 OWA       0.042700
     15 H043        -4.1930    -0.2140     0.9850 h1         1 OWA       0.042700
     16 H051        -1.3130    -1.9580    -1.0100 h1         1 OWA       0.044700
     17 H052        -1.7700    -2.1910     0.6990 h1         1 OWA       0.044700
     18 H061        -0.2200    -0.4830     1.4790 hc         1 OWA       0.078700
     19 H072         1.1710    -2.3480     0.6440 hc         1 OWA       0.075200
     20 H071         1.2120    -1.5860    -0.9800 hc         1 OWA       0.075200
     21 H102         3.8290     1.7270     0.4420 h1         1 OWA       0.050033
     22 H103         4.9030     0.3420     0.1200 h1         1 OWA       0.050033
     23 H101         4.4090     1.4140    -1.2070 h1         1 OWA       0.050033
     24 H121        -0.1820     0.5010    -1.4330 hc         1 OWA       0.084200
     25 H122         0.1980     1.5260    -0.0110 hc         1 OWA       0.084200
@<TRIPOS>BOND
     1     1     8 1   
     2     1     9 1   
     3     1    10 2   
     4     2     9 1   
     5     2    13 1   
     6     2    14 1   
     7     2    15 1   
     8     3     4 1   
     9     3     9 1   
    10     3    16 1   
    11     3    17 1   
    12     4     5 1   
    13     4     8 1   
    14     4    18 1   
    15     5     6 1   
    16     5    19 1   
    17     5    20 1   
    18     6    11 1   
    19     6    12 2   
    20     7    11 1   
    21     7    21 1   
    22     7    22 1   
    23     7    23 1   
    24     8    24 1   
    25     8    25 1   
@<TRIPOS>SUBSTRUCTURE
     1 OWA         1 TEMP              0 ****  ****    0 ROOT
