@<TRIPOS>MOLECULE
OWA
   25    25     1     0     0
SMALL
abcg2


@<TRIPOS>ATOM
      1 C02         -2.2360     0.8590    -0.1070 c          1 OWA       0.564000
      2 C04         -3.8840    -0.9680     0.0500 c3         1 OWA       0.095300
      3 C05         -1.3970    -1.3130     0.0960 c5         1 OWA       0.097000
      4 C06         -0.2310    -0.3630     0.3940 c5         1 OWA      -0.068700
      5 C07          1.0770    -0.8690    -0.1810 c3         1 OWA      -0.133400
      6 C08          2.2630    -0.0150     0.1810 c          1 OWA       0.591100
      7 C10          4.5790     0.2640    -0.1490 c3         1 OWA       0.152900
      8 C12         -0.7280     0.9700    -0.1620 c5         1 OWA      -0.165400
      9 N03         -2.5470    -0.4370     0.0850 n          1 OWA      -0.417800
     10 O01         -3.0340     1.7740    -0.2330 o          1 OWA      -0.548000
     11 O09          3.3690    -0.4500    -0.4070 os         1 OWA      -0.446100
     12 O11          2.2330     0.9400     0.9170 o          1 OWA      -0.483000
     13 H042        -4.6040    -0.1610     0.1540 h1         1 OWA       0.042700
     14 H041        -4.0790    -1.4900    -0.8900 h1         1 OWA       0.042700
     15 H043        -4.0300    -1.6730     0.8680 h1         1 OWA       0.042700
     16 H051        -1.2810    -1.8130    -0.8740 h1         1 OWA       0.044700
     17 H052        -1.5050    -2.0880     0.8570 h1         1 OWA       0.044700
     18 H061        -0.1390    -0.2750     1.4800 hc         1 OWA       0.078700
     19 H072         1.2760    -1.8870     0.1720 hc         1 OWA       0.075200
     20 H071         1.0140    -0.9420    -1.2710 hc         1 OWA       0.075200
     21 H102         4.5100     1.2990    -0.4840 h1         1 OWA       0.050033
     22 H103         4.8350     0.2460     0.9100 h1         1 OWA       0.050033
     23 H101         5.3530    -0.2450    -0.7150 h1         1 OWA       0.050033
     24 H121        -0.4380     1.1060    -1.2100 hc         1 OWA       0.084200
     25 H122        -0.3720     1.8410     0.3870 hc         1 OWA       0.084200
@<TRIPOS>BOND
     1     1     8 1   
     2     1     9 1   
     3     1    10 2   
     4     2     9 1   
     5     2    13 1   
     6     2    14 1   
     7     2    15 1   
     8     3     4 1   
     9     3     9 1   
    10     3    16 1   
    11     3    17 1   
    12     4     5 1   
    13     4     8 1   
    14     4    18 1   
    15     5     6 1   
    16     5    19 1   
    17     5    20 1   
    18     6    11 1   
    19     6    12 2   
    20     7    11 1   
    21     7    21 1   
    22     7    22 1   
    23     7    23 1   
    24     8    24 1   
    25     8    25 1   
@<TRIPOS>SUBSTRUCTURE
     1 OWA         1 TEMP              0 ****  ****    0 ROOT
