@<TRIPOS>MOLECULE
OWB
   52    55     1     0     0
SMALL
abcg2


@<TRIPOS>ATOM
      1 C1          92.4470    89.2600    -2.0840 ca         1 OWB      -0.076000
      2 C2          91.2640    88.6210    -2.4260 ca         1 OWB      -0.131000
      3 C4          92.0490    86.6460    -1.2920 ca         1 OWB      -0.178000
      4 C5          93.2160    87.3110    -0.9740 ca         1 OWB       0.119100
      5 C6          93.4390    88.6230    -1.3560 ca         1 OWB      -0.143000
      6 C13         93.3610    87.4610     1.8130 ca         1 OWB      -0.286000
      7 C14         93.5800    87.4610     3.1840 ca         1 OWB       0.160300
      8 C16         95.3860    86.1150     2.8970 cp         1 OWB       0.224500
      9 C18         96.5090    85.3580     3.4980 cp         1 OWB      -0.114500
     10 C19         96.7540    85.4060     4.8670 ca         1 OWB      -0.119000
     11 C23         97.3510    84.5750     2.7160 ca         1 OWB      -0.119000
     12 C24         92.6900    88.2270     4.1170 c6         1 OWB      -0.129000
     13 C25         92.7940    89.7360     3.8620 c6         1 OWB       0.167800
     14 C27         90.5660    90.1140     4.6820 c6         1 OWB       0.158800
     15 C28         90.3580    88.6310     4.9480 c6         1 OWB      -0.075400
     16 C29         91.2240    87.7910     4.0160 c6         1 OWB      -0.068400
     17 C3          91.0570    87.2970    -2.0310 ca         1 OWB      -0.003000
     18 N7          89.9100    86.5570    -2.3160 ns         1 OWB      -0.154000
     19 C8          88.8200    86.8950    -3.0610 c          1 OWB       0.611100
     20 C9          87.8000    85.7900    -3.1550 c3         1 OWB      -0.184100
     21 O10         88.6830    87.9720    -3.6090 o          1 OWB      -0.571100
     22 O11         94.1970    86.6250    -0.2880 os         1 OWB      -0.351400
     23 C12         94.2580    86.7280     1.0470 ca         1 OWB       0.358300
     24 N15         94.5970    86.7870     3.7200 nb         1 OWB      -0.202000
     25 N17         95.2600    86.0580     1.5790 nb         1 OWB      -0.206000
     26 C20         97.8160    84.6780     5.3800 ca         1 OWB       0.318400
     27 N21         98.6220    83.9290     4.6370 nb         1 OWB      -0.654000
     28 C22         98.3840    83.8850     3.3320 ca         1 OWB       0.318400
     29 N26         91.9730    90.4450     4.8200 n7         1 OWB      -0.862400
     30 H1          92.5960    90.2850    -2.3980 ha         1 OWB       0.123000
     31 H2          90.5200    89.1530    -2.9940 ha         1 OWB       0.154000
     32 H3          91.9120    85.6190    -0.9740 ha         1 OWB       0.128000
     33 H4          94.3610    89.1280    -1.0990 ha         1 OWB       0.135000
     34 H5          92.5340    88.0020     1.3770 ha         1 OWB       0.147000
     35 H6          96.1340    85.9990     5.5230 ha         1 OWB       0.145500
     36 H7          97.2090    84.4970     1.6480 ha         1 OWB       0.145500
     37 H8          93.0460    88.0320     5.1330 hc         1 OWB       0.092700
     38 H9          93.8310    90.0610     3.9700 h1         1 OWB       0.033700
     39 H10         92.4980    89.9390     2.8190 h1         1 OWB       0.033700
     40 H11         90.1740    90.3530     3.6790 h1         1 OWB       0.030200
     41 H12         89.9940    90.7100     5.3970 h1         1 OWB       0.030200
     42 H13         89.3050    88.3740     4.8180 hc         1 OWB       0.050200
     43 H14         90.6180    88.4120     5.9880 hc         1 OWB       0.050200
     44 H15         91.1290    86.7280     4.2500 hc         1 OWB       0.042200
     45 H16         90.8750    87.9190     2.9860 hc         1 OWB       0.042200
     46 H17         89.9000    85.6270    -1.9230 hn         1 OWB       0.152000
     47 H18         86.9020    86.1500    -3.6490 hc         1 OWB       0.066700
     48 H19         88.2000    84.9520    -3.7290 hc         1 OWB       0.066700
     49 H20         87.5340    85.4100    -2.1680 hc         1 OWB       0.066700
     50 H21         98.0230    84.7060     6.4440 h4         1 OWB       0.020100
     51 H22         99.0490    83.2680     2.7370 h4         1 OWB       0.020100
     52 H23         92.1050    91.4410     4.7000 hn         1 OWB       0.416000
@<TRIPOS>BOND
     1     1     2 ar  
     2     1     5 ar  
     3     1    30 1   
     4     2    17 ar  
     5     2    31 1   
     6     3     4 ar  
     7     3    17 ar  
     8     3    32 1   
     9     4     5 ar  
    10     4    22 1   
    11     5    33 1   
    12     6     7 ar  
    13     6    23 ar  
    14     6    34 1   
    15     7    12 1   
    16     7    24 ar  
    17     8     9 1   
    18     8    24 ar  
    19     8    25 ar  
    20     9    10 ar  
    21     9    11 ar  
    22    10    26 ar  
    23    10    35 1   
    24    11    28 ar  
    25    11    36 1   
    26    12    13 1   
    27    12    16 1   
    28    12    37 1   
    29    13    29 1   
    30    13    38 1   
    31    13    39 1   
    32    14    15 1   
    33    14    29 1   
    34    14    40 1   
    35    14    41 1   
    36    15    16 1   
    37    15    42 1   
    38    15    43 1   
    39    16    44 1   
    40    16    45 1   
    41    17    18 1   
    42    18    19 1   
    43    18    46 1   
    44    19    20 1   
    45    19    21 2   
    46    20    47 1   
    47    20    48 1   
    48    20    49 1   
    49    22    23 1   
    50    23    25 ar  
    51    26    27 ar  
    52    26    50 1   
    53    27    28 ar  
    54    28    51 1   
    55    29    52 1   
@<TRIPOS>SUBSTRUCTURE
     1 OWB         1 TEMP              0 ****  ****    0 ROOT
