@<TRIPOS>MOLECULE
OWB
   52    55     1     0     0
SMALL
No Charge or Current Charge


@<TRIPOS>ATOM
      1 C1          92.3870    88.9660    -1.7020 ca         1 OWB      -0.076000
      2 C2          91.2930    88.5060    -2.4570 ca         1 OWB      -0.131000
      3 C4          91.5610    86.2930    -1.4900 ca         1 OWB      -0.178000
      4 C5          92.6440    86.7540    -0.7260 ca         1 OWB       0.119100
      5 C6          93.0660    88.0910    -0.8390 ca         1 OWB      -0.143000
      6 C13         93.0090    87.0890     2.1650 ca         1 OWB      -0.286000
      7 C14         93.5260    87.4010     3.4320 ca         1 OWB       0.160300
      8 C16         95.3460    86.0360     3.0170 cp         1 OWB       0.224500
      9 C18         96.6480    85.4460     3.4950 cp         1 OWB      -0.114500
     10 C19         97.1930    85.7410     4.7740 ca         1 OWB      -0.119000
     11 C23         97.4170    84.5540     2.6970 ca         1 OWB      -0.119000
     12 C24         92.8060    88.3420     4.4020 c6         1 OWB      -0.129000
     13 C25         92.6290    89.7580     3.7940 c6         1 OWB       0.167800
     14 C27         90.6090    90.1680     5.1530 c6         1 OWB       0.158800
     15 C28         90.7130    88.7630     5.7960 c6         1 OWB      -0.075400
     16 C29         91.4310    87.7710     4.8490 c6         1 OWB      -0.068400
     17 C3          90.8720    87.1600    -2.3590 ca         1 OWB      -0.003000
     18 N7          89.7800    86.6190    -3.0940 ns         1 OWB      -0.154000
     19 C8          88.9030    87.1770    -4.0150 c          1 OWB       0.611100
     20 C9          87.8670    86.1970    -4.5580 c3         1 OWB      -0.184100
     21 O10         88.9280    88.3460    -4.3830 o          1 OWB      -0.571100
     22 O11         93.2950    85.8700     0.1030 os         1 OWB      -0.351400
     23 C12         93.7560    86.2220     1.3510 ca         1 OWB       0.358300
     24 N15         94.6930    86.8740     3.8510 nb         1 OWB      -0.202000
     25 N17         94.9140    85.6920     1.7860 nb         1 OWB      -0.206000
     26 C20         98.4110    85.1680     5.1800 ca         1 OWB       0.318400
     27 N21         99.1250    84.3220     4.4030 nb         1 OWB      -0.654000
     28 C22         98.6270    84.0260     3.1820 ca         1 OWB       0.318400
     29 N26         91.9420    90.6680     4.7410 n7         1 OWB      -0.862400
     30 H1          92.7090    90.0010    -1.7880 ha         1 OWB       0.123000
     31 H2          90.7930    89.2100    -3.1140 ha         1 OWB       0.154000
     32 H3          91.2550    85.2540    -1.4010 ha         1 OWB       0.128000
     33 H4          93.9170    88.4520    -0.2660 ha         1 OWB       0.135000
     34 H5          92.0630    87.5000     1.8270 ha         1 OWB       0.147000
     35 H6          96.6850    86.4110     5.4620 ha         1 OWB       0.145500
     36 H7          97.0900    84.2630     1.7030 ha         1 OWB       0.145500
     37 H8          93.4270    88.4540     5.3020 hc         1 OWB       0.092700
     38 H9          93.6160    90.1750     3.5400 h1         1 OWB       0.033700
     39 H10         92.0470    89.6960     2.8620 h1         1 OWB       0.033700
     40 H11         89.9490    90.1200     4.2740 h1         1 OWB       0.030200
     41 H12         90.1580    90.8690     5.8700 h1         1 OWB       0.030200
     42 H13         89.7090    88.3900     6.0400 hc         1 OWB       0.050200
     43 H14         91.2610    88.8330     6.7460 hc         1 OWB       0.050200
     44 H15         91.5690    86.8050     5.3530 hc         1 OWB       0.042200
     45 H16         90.7970    87.5810     3.9720 hc         1 OWB       0.042200
     46 H17         89.6120    85.6390    -2.9100 hn         1 OWB       0.152000
     47 H18         87.1870    86.6600    -5.2820 hc         1 OWB       0.066700
     48 H19         88.3850    85.3310    -4.9850 hc         1 OWB       0.066700
     49 H20         87.3230    85.7520    -3.7180 hc         1 OWB       0.066700
     50 H21         98.8290    85.3950     6.1610 h4         1 OWB       0.020100
     51 H22         99.2160    83.3430     2.5710 h4         1 OWB       0.020100
     52 H23         91.8260    91.5870     4.2920 hn         1 OWB       0.416000
@<TRIPOS>BOND
     1     1     2 ar  
     2     1     5 ar  
     3     1    30 1   
     4     2    17 ar  
     5     2    31 1   
     6     3     4 ar  
     7     3    17 ar  
     8     3    32 1   
     9     4     5 ar  
    10     4    22 1   
    11     5    33 1   
    12     6     7 ar  
    13     6    23 ar  
    14     6    34 1   
    15     7    12 1   
    16     7    24 ar  
    17     8     9 1   
    18     8    24 ar  
    19     8    25 ar  
    20     9    10 ar  
    21     9    11 ar  
    22    10    26 ar  
    23    10    35 1   
    24    11    28 ar  
    25    11    36 1   
    26    12    13 1   
    27    12    16 1   
    28    12    37 1   
    29    13    29 1   
    30    13    38 1   
    31    13    39 1   
    32    14    15 1   
    33    14    29 1   
    34    14    40 1   
    35    14    41 1   
    36    15    16 1   
    37    15    42 1   
    38    15    43 1   
    39    16    44 1   
    40    16    45 1   
    41    17    18 1   
    42    18    19 1   
    43    18    46 1   
    44    19    20 1   
    45    19    21 2   
    46    20    47 1   
    47    20    48 1   
    48    20    49 1   
    49    22    23 1   
    50    23    25 ar  
    51    26    27 ar  
    52    26    50 1   
    53    27    28 ar  
    54    28    51 1   
    55    29    52 1   
@<TRIPOS>SUBSTRUCTURE
     1 OWB         1 TEMP              0 ****  ****    0 ROOT
