@<TRIPOS>MOLECULE
OWC
   41    44     1     0     0
SMALL
No Charge or Current Charge


@<TRIPOS>ATOM
      1 N1           7.5860     1.0500    17.8120 nb         1 OWC      -0.656000
      2 C4          11.2530    -0.2980    22.7360 ca         1 OWC      -0.056300
      3 C5          11.6660    -0.9930    21.5800 ca         1 OWC      -0.089000
      4 C6           9.7630    -0.2150    23.1020 c6         1 OWC      -0.088400
      5 C7           9.2350    -1.5950    23.5810 c6         1 OWC      -0.071400
      6 C8           7.7280    -1.7350    23.3230 c6         1 OWC      -0.092400
      7 C10          8.9810     0.4320    21.9250 c          1 OWC       0.565000
      8 C13          6.2850     1.4140    17.8090 ca         1 OWC       0.363900
      9 C15          4.1200     1.7520    18.8880 ca         1 OWC      -0.081000
     10 C17          3.8220     1.1330    21.2190 ca         1 OWC      -0.091000
     11 O            9.2450     1.5790    21.5820 o          1 OWC      -0.539000
     12 C3          12.2230     0.3200    23.5510 ca         1 OWC      -0.094000
     13 C2          13.5870     0.2460    23.2140 ca         1 OWC      -0.100000
     14 C1          13.9890    -0.4470    22.0600 ca         1 OWC      -0.098000
     15 C           13.0280    -1.0650    21.2450 ca         1 OWC       0.127000
     16 Cl          13.5290    -1.9340    19.8000 cl         1 OWC      -0.215000
     17 N            7.9580    -0.3000    21.2650 n          1 OWC      -0.251400
     18 C9           7.4530    -1.5830    21.8160 c6         1 OWC       0.116000
     19 C11          7.2970     0.2190    20.0920 ca         1 OWC      -0.084000
     20 C19          5.9640     0.7050    20.1150 ca         1 OWC      -0.004000
     21 C18          5.1440     0.6580    21.2670 ca         1 OWC      -0.097000
     22 C16          3.3070     1.6700    20.0290 ca         1 OWC      -0.111000
     23 C14          5.4480     1.2840    18.9340 ca         1 OWC      -0.095000
     24 C12          8.0760     0.4960    18.9440 ca         1 OWC       0.334900
     25 H1          10.9340    -1.4790    20.9390 ha         1 OWC       0.128000
     26 H2           9.6590     0.5040    23.9260 hc         1 OWC       0.074700
     27 H3           9.7580    -2.4080    23.0560 hc         1 OWC       0.055200
     28 H4           9.4560    -1.7320    24.6480 hc         1 OWC       0.055200
     29 H5           7.1700    -0.9760    23.8900 hc         1 OWC       0.055200
     30 H6           7.3740    -2.7160    23.6700 hc         1 OWC       0.055200
     31 H7           5.9140     1.8600    16.8870 h4         1 OWC       0.021100
     32 H8           3.7220     2.1910    17.9740 ha         1 OWC       0.118000
     33 H9           3.1980     1.0880    22.1090 ha         1 OWC       0.115000
     34 H10         11.9240     0.8590    24.4470 ha         1 OWC       0.116000
     35 H11         14.3300     0.7260    23.8470 ha         1 OWC       0.119000
     36 H12         15.0430    -0.5050    21.7970 ha         1 OWC       0.130000
     37 H13          6.3770    -1.6900    21.6230 h1         1 OWC       0.048700
     38 H14          7.9490    -2.4030    21.2790 h1         1 OWC       0.048700
     39 H15          5.5190     0.2700    22.2090 ha         1 OWC       0.121000
     40 H16          2.2830     2.0360    19.9960 ha         1 OWC       0.117000
     41 H17          9.1310     0.2230    18.9200 h4         1 OWC       0.026100
@<TRIPOS>BOND
     1     1     8 ar  
     2     1    24 ar  
     3     2     3 ar  
     4     2     4 1   
     5     2    12 ar  
     6     3    15 ar  
     7     3    25 1   
     8     4     5 1   
     9     4     7 1   
    10     4    26 1   
    11     5     6 1   
    12     5    27 1   
    13     5    28 1   
    14     6    18 1   
    15     6    29 1   
    16     6    30 1   
    17     7    11 2   
    18     7    17 1   
    19     8    23 ar  
    20     8    31 1   
    21     9    22 ar  
    22     9    23 ar  
    23     9    32 1   
    24    10    21 ar  
    25    10    22 ar  
    26    10    33 1   
    27    12    13 ar  
    28    12    34 1   
    29    13    14 ar  
    30    13    35 1   
    31    14    15 ar  
    32    14    36 1   
    33    15    16 1   
    34    17    18 1   
    35    17    19 1   
    36    18    37 1   
    37    18    38 1   
    38    19    20 ar  
    39    19    24 ar  
    40    20    21 ar  
    41    20    23 ar  
    42    21    39 1   
    43    22    40 1   
    44    24    41 1   
@<TRIPOS>SUBSTRUCTURE
     1 OWC         1 TEMP              0 ****  ****    0 ROOT
