@<TRIPOS>MOLECULE
OWC
   41    44     1     0     0
SMALL
abcg2


@<TRIPOS>ATOM
      1 N1           6.9520     0.0110    17.6100 nb         1 OWC      -0.656000
      2 C4          11.1470    -0.2320    22.7230 ca         1 OWC      -0.056300
      3 C5          11.8620    -0.8090    21.6720 ca         1 OWC      -0.089000
      4 C6           9.6600    -0.4740    22.8470 c6         1 OWC      -0.088400
      5 C7           9.3370    -1.9430    23.1440 c6         1 OWC      -0.071400
      6 C8           7.8380    -2.1690    23.0520 c6         1 OWC      -0.092400
      7 C10          8.9180     0.1000    21.6370 c          1 OWC       0.565000
      8 C13          5.9020     0.7890    17.7470 ca         1 OWC       0.363900
      9 C15          4.2540     2.0500    19.1030 ca         1 OWC      -0.081000
     10 C17          4.4590     2.0030    21.5080 ca         1 OWC      -0.091000
     11 O            9.2530     1.1870    21.1650 o          1 OWC      -0.539000
     12 C3          11.8270     0.5370    23.6630 ca         1 OWC      -0.094000
     13 C2          13.2020     0.7300    23.5610 ca         1 OWC      -0.100000
     14 C1          13.9190     0.1590    22.5160 ca         1 OWC      -0.098000
     15 C           13.2290    -0.6060    21.5840 ca         1 OWC       0.127000
     16 CL          14.1140    -1.3380    20.2570 cl         1 OWC      -0.215000
     17 N            7.8640    -0.5940    21.1380 n          1 OWC      -0.251400
     18 C9           7.3690    -1.8910    21.6370 c6         1 OWC       0.116000
     19 C11          7.1760    -0.0690    20.0020 ca         1 OWC      -0.084000
     20 C19          6.0490     0.7720    20.1770 ca         1 OWC      -0.004000
     21 C18          5.5600     1.1860    21.4360 ca         1 OWC      -0.097000
     22 C16          3.7990     2.4380    20.3370 ca         1 OWC      -0.111000
     23 C14          5.3880     1.2120    18.9960 ca         1 OWC      -0.095000
     24 C12          7.5770    -0.4130    18.7390 ca         1 OWC       0.334900
     25 H1          11.3580    -1.4090    20.9260 ha         1 OWC       0.128000
     26 H2           9.2940     0.1260    23.6870 hc         1 OWC       0.074700
     27 H3           9.8500    -2.5880    22.4250 hc         1 OWC       0.055200
     28 H4           9.7200    -2.1970    24.1330 hc         1 OWC       0.055200
     29 H5           7.3160    -1.5110    23.7520 hc         1 OWC       0.055200
     30 H6           7.5770    -3.1970    23.3090 hc         1 OWC       0.055200
     31 H7           5.4070     1.1210    16.8380 h4         1 OWC       0.021100
     32 H8           3.7560     2.3770    18.1980 ha         1 OWC       0.118000
     33 H9           4.0880     2.3210    22.4750 ha         1 OWC       0.115000
     34 H10         11.2780     0.9870    24.4800 ha         1 OWC       0.116000
     35 H11         13.7210     1.3290    24.2970 ha         1 OWC       0.119000
     36 H12         14.9860     0.3030    22.4260 ha         1 OWC       0.130000
     37 H13          6.2800    -1.8620    21.5860 h1         1 OWC       0.048700
     38 H14          7.7110    -2.6790    20.9590 h1         1 OWC       0.048700
     39 H15          6.0620     0.8580    22.3360 ha         1 OWC       0.121000
     40 H16          2.9310     3.0800    20.4210 ha         1 OWC       0.117000
     41 H17          8.4390    -1.0570    18.6060 h4         1 OWC       0.026100
@<TRIPOS>BOND
     1     1     8 ar  
     2     1    24 ar  
     3     2     3 ar  
     4     2     4 1   
     5     2    12 ar  
     6     3    15 ar  
     7     3    25 1   
     8     4     5 1   
     9     4     7 1   
    10     4    26 1   
    11     5     6 1   
    12     5    27 1   
    13     5    28 1   
    14     6    18 1   
    15     6    29 1   
    16     6    30 1   
    17     7    11 2   
    18     7    17 1   
    19     8    23 ar  
    20     8    31 1   
    21     9    22 ar  
    22     9    23 ar  
    23     9    32 1   
    24    10    21 ar  
    25    10    22 ar  
    26    10    33 1   
    27    12    13 ar  
    28    12    34 1   
    29    13    14 ar  
    30    13    35 1   
    31    14    15 ar  
    32    14    36 1   
    33    15    16 1   
    34    17    18 1   
    35    17    19 1   
    36    18    37 1   
    37    18    38 1   
    38    19    20 ar  
    39    19    24 ar  
    40    20    21 ar  
    41    20    23 ar  
    42    21    39 1   
    43    22    40 1   
    44    24    41 1   
@<TRIPOS>SUBSTRUCTURE
     1 OWC         1 TEMP              0 ****  ****    0 ROOT
