@<TRIPOS>MOLECULE
OWD
   32    34     1     0     0
SMALL
bcc


@<TRIPOS>ATOM
      1 C10          1.9760   -58.8900    52.4350 ca         1 OWD       0.557300
      2 N12          2.9200   -57.2070    53.8180 nb         1 OWD      -0.622000
      3 C13          2.3380   -56.3050    52.9820 ca         1 OWD       0.245300
      4 C15          1.9140   -54.0290    52.3860 ca         1 OWD       0.009400
      5 C17          1.1480   -54.4470    51.2820 ca         1 OWD      -0.113000
      6 C21          1.8400   -60.9500    50.0020 ca         1 OWD      -0.121500
      7 C22          1.1380   -61.4910    48.9330 ca         1 OWD      -0.125000
      8 C02         -1.0230   -63.9430    47.8820 c          1 OWD       0.938600
      9 C05         -0.2190   -61.7900    49.0300 ca         1 OWD       0.025700
     10 C06         -0.8570   -61.5320    50.2410 ca         1 OWD      -0.125000
     11 C07         -0.1750   -60.9880    51.3190 ca         1 OWD      -0.121500
     12 C08          1.1740   -60.7050    51.1880 ca         1 OWD       0.043100
     13 C11          2.7490   -58.4620    53.5610 ca         1 OWD       0.309900
     14 C14          2.5030   -54.9310    53.2300 ca         1 OWD      -0.137300
     15 C18          0.9850   -55.7840    51.0330 ca         1 OWD      -0.159300
     16 C19          1.5770   -56.7410    51.8770 ca         1 OWD       0.343300
     17 N20          1.4110   -58.0640    51.6230 nb         1 OWD      -0.708000
     18 O01         -0.7620   -64.5230    48.9490 o          1 OWD      -0.826300
     19 O03         -1.3640   -64.4590    46.8000 o          1 OWD      -0.826300
     20 O09          1.8770   -60.2140    52.2760 os         1 OWD      -0.354400
     21 CL16         2.1040   -52.3330    52.6670 cl         1 OWD      -0.120400
     22 H1           0.6920   -53.7120    50.6340 ha         1 OWD       0.145000
     23 H2           2.8950   -60.7250    49.9100 ha         1 OWD       0.122500
     24 H3           1.6610   -61.6810    48.0030 ha         1 OWD       0.132500
     25 H4          -0.5160   -62.0570    46.9320 hc         1 OWD       0.034200
     26 H5          -1.9900   -62.0230    47.8690 hc         1 OWD       0.034200
     27 H6          -1.9130   -61.7510    50.3450 ha         1 OWD       0.132500
     28 H7          -0.6850   -60.7910    52.2530 ha         1 OWD       0.122500
     29 H8           3.2070   -59.1960    54.2170 h4         1 OWD       0.043100
     30 H9           3.0930   -54.6160    54.0810 ha         1 OWD       0.158000
     31 H10          0.3990   -56.1190    50.1870 ha         1 OWD       0.160000
     32 C04         -0.9570   -62.3890    47.8760 c3         1 OWD      -0.199100
@<TRIPOS>BOND
     1     1    13 ar  
     2     1    17 ar  
     3     1    20 1   
     4     2     3 ar  
     5     2    13 ar  
     6     3    14 ar  
     7     3    16 ar  
     8     4     5 ar  
     9     4    14 ar  
    10     4    21 1   
    11     5    15 ar  
    12     5    22 1   
    13     6     7 ar  
    14     6    12 ar  
    15     6    23 1   
    16     7     9 ar  
    17     7    24 1   
    18     8    18 1   
    19     8    19 1   
    20     8    32 1   
    21     9    10 ar  
    22     9    32 1   
    23    10    11 ar  
    24    10    27 1   
    25    11    12 ar  
    26    11    28 1   
    27    12    20 1   
    28    13    29 1   
    29    14    30 1   
    30    15    16 ar  
    31    15    31 1   
    32    16    17 ar  
    33    25    32 1   
    34    26    32 1   
@<TRIPOS>SUBSTRUCTURE
     1 OWD         1 TEMP              0 ****  ****    0 ROOT
