@<TRIPOS>MOLECULE
OWD
   32    34     1     0     0
SMALL
No Charge or Current Charge


@<TRIPOS>ATOM
      1 C10          2.3700   -58.7890    52.0350 ca         1 OWD       0.557300
      2 N12          2.7890   -57.2510    53.8920 nb         1 OWD      -0.622000
      3 C13          2.2120   -56.2910    53.1200 ca         1 OWD       0.180000
      4 C15          1.5080   -53.9650    52.8550 ca         1 OWD       0.101000
      5 C17          1.0280   -54.2420    51.5680 ca         1 OWD      -0.095000
      6 C21          2.1000   -61.4470    49.6210 ca         1 OWD      -0.103500
      7 C22          1.2060   -62.0740    48.7360 ca         1 OWD      -0.107000
      8 C02         -1.4990   -64.0010    48.4670 c          1 OWD       0.728000
      9 C05         -0.1850   -61.9230    48.9020 ca         1 OWD       0.025700
     10 C06         -0.6700   -61.1410    49.9690 ca         1 OWD      -0.107000
     11 C07          0.2220   -60.5120    50.8550 ca         1 OWD      -0.103500
     12 C08          1.6120   -60.6550    50.6730 ca         1 OWD       0.043100
     13 C11          2.8660   -58.4950    53.3370 ca         1 OWD       0.309900
     14 C14          2.0950   -54.9810    53.6230 ca         1 OWD      -0.054000
     15 C18          1.1360   -55.5430    51.0460 ca         1 OWD      -0.076000
     16 C19          1.7200   -56.5790    51.7990 ca         1 OWD       0.278000
     17 N20          1.8050   -57.8240    51.2580 nb         1 OWD      -0.708000
     18 O01         -2.4250   -64.1040    49.2590 o          1 OWD      -0.721000
     19 O03         -0.7620   -64.9270    48.1640 o          1 OWD      -0.721000
     20 O09          2.5110   -60.0720    51.5390 os         1 OWD      -0.354400
     21 Cl16         1.3730   -52.3370    53.5070 cl         1 OWD      -0.212000
     22 H1           0.5740   -53.4530    50.9740 ha         1 OWD       0.127000
     23 H2           3.1720   -61.5720    49.4890 ha         1 OWD       0.104500
     24 H3           1.5940   -62.6820    47.9220 ha         1 OWD       0.114500
     25 H4          -0.6480   -62.6780    46.9710 hc         1 OWD       0.034200
     26 H5          -2.0580   -61.9810    47.9000 hc         1 OWD       0.034200
     27 H6          -1.7420   -61.0240    50.1150 ha         1 OWD       0.114500
     28 H7          -0.1680   -59.9210    51.6800 ha         1 OWD       0.104500
     29 H8           3.3290   -59.2740    53.9410 h4         1 OWD       0.043100
     30 H9           2.4640   -54.7540    54.6190 ha         1 OWD       0.140000
     31 H10          0.7630   -55.7540    50.0480 ha         1 OWD       0.142000
     32 C04         -1.1550   -62.6010    47.9400 c3         1 OWD      -0.199100
@<TRIPOS>BOND
     1     1    13 ar  
     2     1    17 ar  
     3     1    20 1   
     4     2     3 ar  
     5     2    13 ar  
     6     3    14 ar  
     7     3    16 ar  
     8     4     5 ar  
     9     4    14 ar  
    10     4    21 1   
    11     5    15 ar  
    12     5    22 1   
    13     6     7 ar  
    14     6    12 ar  
    15     6    23 1   
    16     7     9 ar  
    17     7    24 1   
    18     8    18 1   
    19     8    19 1   
    20     8    32 1   
    21     9    10 ar  
    22     9    32 1   
    23    10    11 ar  
    24    10    27 1   
    25    11    12 ar  
    26    11    28 1   
    27    12    20 1   
    28    13    29 1   
    29    14    30 1   
    30    15    16 ar  
    31    15    31 1   
    32    16    17 ar  
    33    25    32 1   
    34    26    32 1   
@<TRIPOS>SUBSTRUCTURE
     1 OWD         1 TEMP              0 ****  ****    0 ROOT
