@<TRIPOS>MOLECULE
OWF
   17    16     1     0     0
SMALL
No Charge or Current Charge


@<TRIPOS>ATOM
      1 N            4.8020    18.8520     8.6170 n8         1 OWF      -0.986200
      2 CA           3.6870    17.9600     8.1080 c3         1 OWF       0.010500
      3 C            2.2150    18.5140     8.3040 c          1 OWF       0.728000
      4 O            1.5620    18.1010     9.2530 o          1 OWF      -0.722500
      5 CB           3.9090    17.5430     6.6160 c3         1 OWF       0.140300
      6 OB1          3.8050    18.7130     5.7660 oh         1 OWF      -0.640000
      7 CG           2.9310    16.3810     6.2010 c          1 OWF       0.608100
      8 OD1          2.0750    16.4750     5.3310 o          1 OWF      -0.640100
      9 ND2          3.0710    15.2060     6.8620 nt         1 OWF      -0.600000
     10 OXT          1.7960    19.3510     7.5120 o          1 OWF      -0.722500
     11 H            4.6990    18.9800     9.6320 hn         1 OWF       0.383500
     12 H2           5.7030    18.3690     8.5210 hn         1 OWF       0.383500
     13 HA           3.7650    17.0470     8.7130 h1         1 OWF      -0.015300
     14 HB1          4.9210    17.1270     6.5290 h1         1 OWF       0.011700
     15 H3           3.0520    19.2250     6.1590 ho         1 OWF       0.460000
     16 HD22         2.4670    14.4330     6.6250 hn         1 OWF       0.300500
     17 HD21         3.7750    15.1080     7.5790 hn         1 OWF       0.300500
@<TRIPOS>BOND
     1     1     2 1   
     2     1    11 1   
     3     1    12 1   
     4     2     3 1   
     5     2     5 1   
     6     2    13 1   
     7     3     4 1   
     8     3    10 1   
     9     5     6 1   
    10     5     7 1   
    11     5    14 1   
    12     6    15 1   
    13     7     8 2   
    14     7     9 1   
    15     9    16 1   
    16     9    17 1   
@<TRIPOS>SUBSTRUCTURE
     1 OWF         1 TEMP              0 ****  ****    0 ROOT
