@<TRIPOS>MOLECULE
OWF
   17    16     1     0     0
SMALL
abcg2


@<TRIPOS>ATOM
      1 N            4.8330    18.9110     8.4350 n8         1 OWF      -0.986200
      2 CA           3.7720    17.9620     8.1410 c3         1 OWF       0.010500
      3 C            2.3790    18.5340     8.5000 c          1 OWF       0.728000
      4 O            1.4070    17.9640     7.9700 o          1 OWF      -0.722500
      5 CB           3.8460    17.5570     6.6660 c3         1 OWF       0.140300
      6 OB1          3.5940    18.6510     5.8310 oh         1 OWF      -0.640000
      7 CG           2.9160    16.4100     6.2740 c          1 OWF       0.608100
      8 OD1          2.1930    16.5220     5.2910 o          1 OWF      -0.640100
      9 ND2          3.0290    15.2720     6.9700 nt         1 OWF      -0.600000
     10 OXT          2.3490    19.4680     9.3220 o          1 OWF      -0.722500
     11 H            4.5500    19.4420     9.2490 hn         1 OWF       0.383500
     12 H2           5.6830    18.4210     8.6790 hn         1 OWF       0.383500
     13 HA           3.8760    17.0470     8.7480 h1         1 OWF      -0.015300
     14 HB1          4.8670    17.1810     6.4820 h1         1 OWF       0.011700
     15 H3           2.8820    18.3650     5.2390 ho         1 OWF       0.460000
     16 HD22         2.4460    14.4830     6.7470 hn         1 OWF       0.300500
     17 HD21         3.6140    15.1960     7.7840 hn         1 OWF       0.300500
@<TRIPOS>BOND
     1     1     2 1   
     2     1    11 1   
     3     1    12 1   
     4     2     3 1   
     5     2     5 1   
     6     2    13 1   
     7     3     4 1   
     8     3    10 1   
     9     5     6 1   
    10     5     7 1   
    11     5    14 1   
    12     6    15 1   
    13     7     8 2   
    14     7     9 1   
    15     9    16 1   
    16     9    17 1   
@<TRIPOS>SUBSTRUCTURE
     1 OWF         1 TEMP              0 ****  ****    0 ROOT
