@<TRIPOS>MOLECULE
OWG
   83    87     1     0     0
SMALL
abcg2


@<TRIPOS>ATOM
      1 C10         -5.0590    34.5050    -7.1490 ca         1 OWG       0.074100
      2 C12         -5.6100    35.1900    -9.3450 c3         1 OWG       0.149900
      3 C02         -5.3300    29.0970    -3.5190 ca         1 OWG       0.395900
      4 C03         -5.2510    30.1030    -4.5130 ca         1 OWG      -0.295300
      5 C04         -4.4030    31.3370    -4.3100 c3         1 OWG       0.043200
      6 C05         -4.6360    32.4460    -5.3070 ca         1 OWG      -0.053300
      7 C06         -3.6510    32.7600    -6.2420 ca         1 OWG      -0.186000
      8 C07         -3.8520    33.7840    -7.1640 ca         1 OWG       0.119100
      9 C09         -1.6860    33.4840    -8.1290 c3         1 OWG       0.146900
     10 C13         -6.0520    34.1950    -6.2230 ca         1 OWG      -0.056300
     11 C14         -7.3310    34.9880    -6.1720 c3         1 OWG      -0.019100
     12 C15         -7.2780    36.0720    -5.0780 c3         1 OWG      -0.136400
     13 C16         -8.5140    36.9390    -5.1270 c          1 OWG       0.631100
     14 C19         -9.6340    35.9130    -1.9490 c6         1 OWG       0.205100
     15 C20        -10.7080    37.5290    -4.1410 c6         1 OWG       0.192300
     16 C24        -10.8170    38.0080    -2.7130 ca         1 OWG      -0.110300
     17 C25        -10.2480    37.2660    -1.6860 ca         1 OWG      -0.062300
     18 C26        -10.2780    37.7530    -0.3760 ca         1 OWG      -0.187000
     19 C27        -10.9080    38.9560    -0.0770 ca         1 OWG       0.125100
     20 C28        -11.5030    39.6930    -1.1210 ca         1 OWG       0.071100
     21 C29        -11.4420    39.2190    -2.4160 ca         1 OWG      -0.072000
     22 C31         -5.8240    33.1660    -5.3060 ca         1 OWG      -0.128000
     23 C32         -5.9700    29.8410    -5.6590 ca         1 OWG       0.172900
     24 C34         -6.7330    27.8690    -4.8430 ca         1 OWG       0.385900
     25 C46        -13.4180    40.8230    -0.3340 c3         1 OWG       0.148900
     26 C48        -10.4450    38.7580     2.2580 c3         1 OWG       0.145900
     27 C69        -11.9230    36.7810    -4.6550 ca         1 OWG      -0.145300
     28 C72        -12.2640    36.8630    -6.0020 ca         1 OWG      -0.060500
     29 C75        -12.6960    35.9620    -3.8290 ca         1 OWG      -0.060500
     30 C78        -13.3410    36.1540    -6.5280 ca         1 OWG      -0.171500
     31 C80        -15.5590    34.6780    -7.4670 c3         1 OWG       0.148900
     32 C81        -13.7690    35.2460    -4.3340 ca         1 OWG      -0.171500
     33 C84        -14.0990    35.3360    -5.6890 ca         1 OWG       0.143100
     34 N17         -9.4990    36.6910    -4.2260 n          1 OWG      -0.291200
     35 N18         -9.4330    35.5950    -3.3700 n7         1 OWG      -0.627400
     36 N33         -6.7130    28.7410    -5.8580 nb         1 OWG      -0.266000
     37 N35         -7.5300    26.7650    -4.9800 nv         1 OWG      -1.042900
     38 N36         -6.0690    27.9960    -3.6870 nb         1 OWG      -0.316000
     39 O08         -2.9420    34.1580    -8.1020 os         1 OWG      -0.337100
     40 O11         -5.2260    35.5640    -8.0150 os         1 OWG      -0.350100
     41 O30         -8.6250    37.8360    -5.9680 o          1 OWG      -0.613100
     42 O47        -10.9860    39.4980     1.1650 os         1 OWG      -0.335100
     43 O79        -15.1700    34.6010    -6.0960 os         1 OWG      -0.350100
     44 H1          -5.6460    36.1080    -9.9290 h1         1 OWG       0.037033
     45 H2          -4.8820    34.5050    -9.7820 h1         1 OWG       0.037033
     46 H3          -6.5970    34.7190    -9.3380 h1         1 OWG       0.037033
     47 H4          -3.3460    31.0510    -4.3410 hc         1 OWG       0.045200
     48 H5          -4.5760    31.7290    -3.3020 hc         1 OWG       0.045200
     49 H6          -2.7280    32.1980    -6.2440 ha         1 OWG       0.116000
     50 H7          -1.1020    33.9760    -8.9020 h1         1 OWG       0.041700
     51 H8          -1.1710    33.5710    -7.1690 h1         1 OWG       0.041700
     52 H9          -1.8120    32.4280    -8.3790 h1         1 OWG       0.041700
     53 H10         -7.5160    35.4670    -7.1320 hc         1 OWG       0.059700
     54 H11         -8.1660    34.3140    -5.9680 hc         1 OWG       0.059700
     55 H12         -7.1670    35.6010    -4.1050 hc         1 OWG       0.077200
     56 H13         -6.4280    36.7310    -5.2590 hc         1 OWG       0.077200
     57 H14        -10.3040    35.1480    -1.5480 h1         1 OWG       0.058700
     58 H15         -8.6890    35.8210    -1.4040 h1         1 OWG       0.058700
     59 H16        -10.5280    38.3790    -4.7930 h1         1 OWG       0.104700
     60 H17         -9.8120    37.1730     0.4080 ha         1 OWG       0.118000
     61 H18        -11.8900    39.8120    -3.2050 ha         1 OWG       0.134000
     62 H19         -6.5980    32.9240    -4.5860 ha         1 OWG       0.123000
     63 H20         -5.9530    30.5540    -6.4750 h4         1 OWG       0.027100
     64 H21        -13.7570    41.8440    -0.1700 h1         1 OWG       0.037700
     65 H22        -14.0770    40.3260    -1.0510 h1         1 OWG       0.037700
     66 H23        -13.4250    40.2760     0.6110 h1         1 OWG       0.037700
     67 H24        -10.6680    39.3380     3.1490 h1         1 OWG       0.043033
     68 H25        -10.9130    37.7730     2.3340 h1         1 OWG       0.043033
     69 H26         -9.3640    38.6420     2.1540 h1         1 OWG       0.043033
     70 H27        -11.6800    37.4940    -6.6610 ha         1 OWG       0.121000
     71 H28        -12.4770    35.8970    -2.7710 ha         1 OWG       0.121000
     72 H29        -13.5820    36.2560    -7.5760 ha         1 OWG       0.124000
     73 H30        -16.4280    34.0330    -7.5660 h1         1 OWG       0.043033
     74 H31        -15.8260    35.7000    -7.7420 h1         1 OWG       0.043033
     75 H32        -14.7600    34.3210    -8.1220 h1         1 OWG       0.043033
     76 H33        -14.3620    34.6080    -3.6910 ha         1 OWG       0.124000
     77 H34         -4.6100    28.3880    -1.7690 hn         1 OWG       0.479000
     78 H35         -3.8920    29.8480    -2.2730 hn         1 OWG       0.479000
     79 H36        -10.0750    34.8780    -3.6850 hn         1 OWG       0.430000
     80 H37         -7.8000    26.5230    -5.9200 hn         1 OWG       0.481500
     81 H38         -7.3350    25.9910    -4.3650 hn         1 OWG       0.481500
     82 O45        -12.0860    40.9120    -0.8610 os         1 OWG      -0.351100
     83 N01         -4.6800    29.2240    -2.3290 nv         1 OWG      -1.058900
@<TRIPOS>BOND
     1     1     8 ar  
     2     1    10 ar  
     3     1    40 1   
     4     2    40 1   
     5     2    44 1   
     6     2    45 1   
     7     2    46 1   
     8     3     4 ar  
     9     3    38 ar  
    10     3    83 1   
    11     4     5 1   
    12     4    23 ar  
    13     5     6 1   
    14     5    47 1   
    15     5    48 1   
    16     6     7 ar  
    17     6    22 ar  
    18     7     8 ar  
    19     7    49 1   
    20     8    39 1   
    21     9    39 1   
    22     9    50 1   
    23     9    51 1   
    24     9    52 1   
    25    10    11 1   
    26    10    22 ar  
    27    11    12 1   
    28    11    53 1   
    29    11    54 1   
    30    12    13 1   
    31    12    55 1   
    32    12    56 1   
    33    13    34 1   
    34    13    41 2   
    35    14    17 1   
    36    14    35 1   
    37    14    57 1   
    38    14    58 1   
    39    15    16 1   
    40    15    27 1   
    41    15    34 1   
    42    15    59 1   
    43    16    17 ar  
    44    16    21 ar  
    45    17    18 ar  
    46    18    19 ar  
    47    18    60 1   
    48    19    20 ar  
    49    19    42 1   
    50    20    21 ar  
    51    20    82 1   
    52    21    61 1   
    53    22    62 1   
    54    23    36 ar  
    55    23    63 1   
    56    24    36 ar  
    57    24    37 1   
    58    24    38 ar  
    59    25    64 1   
    60    25    65 1   
    61    25    66 1   
    62    25    82 1   
    63    26    42 1   
    64    26    67 1   
    65    26    68 1   
    66    26    69 1   
    67    27    28 ar  
    68    27    29 ar  
    69    28    30 ar  
    70    28    70 1   
    71    29    32 ar  
    72    29    71 1   
    73    30    33 ar  
    74    30    72 1   
    75    31    43 1   
    76    31    73 1   
    77    31    74 1   
    78    31    75 1   
    79    32    33 ar  
    80    32    76 1   
    81    33    43 1   
    82    34    35 1   
    83    35    79 1   
    84    37    80 1   
    85    37    81 1   
    86    77    83 1   
    87    78    83 1   
@<TRIPOS>SUBSTRUCTURE
     1 OWG         1 TEMP              0 ****  ****    0 ROOT
