@<TRIPOS>MOLECULE
OWG
   83    87     1     0     0
SMALL
No Charge or Current Charge


@<TRIPOS>ATOM
      1 C10         -5.2340    34.2450    -7.3960 ca         1 OWG       0.074100
      2 C12         -4.7650    35.5730    -9.4790 c3         1 OWG       0.149900
      3 C02         -5.6370    29.1620    -3.3570 ca         1 OWG       0.395900
      4 C03         -5.3440    30.0180    -4.4340 ca         1 OWG      -0.295300
      5 C04         -4.4910    31.2840    -4.2770 c3         1 OWG       0.043200
      6 C05         -4.7400    32.3210    -5.3680 ca         1 OWG      -0.053300
      7 C06         -3.8280    32.4810    -6.4240 ca         1 OWG      -0.186000
      8 C07         -4.0540    33.4350    -7.4450 ca         1 OWG       0.119100
      9 C09         -1.9390    32.7860    -8.5810 c3         1 OWG       0.146900
     10 C13         -6.1500    34.0690    -6.3290 ca         1 OWG      -0.056300
     11 C14         -7.4240    34.9080    -6.2270 c3         1 OWG      -0.019100
     12 C15         -7.1690    36.2740    -5.5520 c3         1 OWG      -0.136400
     13 C16         -8.4720    37.0770    -5.4340 c          1 OWG       0.631100
     14 C19         -8.7720    36.7420    -1.8680 c6         1 OWG       0.205100
     15 C20        -10.5550    37.6450    -4.0940 c6         1 OWG       0.192300
     16 C24        -10.8360    38.0450    -2.6300 ca         1 OWG      -0.110300
     17 C25        -10.0050    37.6050    -1.5770 ca         1 OWG      -0.062300
     18 C26        -10.2980    37.9780    -0.2530 ca         1 OWG      -0.187000
     19 C27        -11.4200    38.7880     0.0490 ca         1 OWG       0.125100
     20 C28        -12.2580    39.2320    -1.0200 ca         1 OWG       0.071100
     21 C29        -11.9490    38.8520    -2.3380 ca         1 OWG      -0.072000
     22 C31         -5.8940    33.1150    -5.3280 ca         1 OWG      -0.128000
     23 C32         -5.8680    29.6360    -5.6880 ca         1 OWG       0.172900
     24 C34         -6.8250    27.8050    -4.7260 ca         1 OWG       0.385900
     25 C46        -13.8910    40.5270     0.3740 c3         1 OWG       0.148900
     26 C48        -10.8840    38.7250     2.4740 c3         1 OWG       0.145900
     27 C69        -11.7160    36.8390    -4.6970 ca         1 OWG      -0.145300
     28 C72        -12.1560    37.1160    -6.0060 ca         1 OWG      -0.060500
     29 C75        -12.3480    35.8170    -3.9600 ca         1 OWG      -0.060500
     30 C78        -13.2150    36.3840    -6.5730 ca         1 OWG      -0.171500
     31 C80        -15.4130    34.8160    -7.6570 c3         1 OWG       0.148900
     32 C81        -13.4060    35.0870    -4.5260 ca         1 OWG      -0.171500
     33 C84        -13.8460    35.3630    -5.8300 ca         1 OWG       0.143100
     34 N17         -9.2680    36.9110    -4.2620 n          1 OWG      -0.291200
     35 N18         -8.9240    36.0280    -3.1490 n7         1 OWG      -0.627400
     36 N33         -6.6150    28.5240    -5.8350 nb         1 OWG      -0.266000
     37 N35         -7.5720    26.6850    -4.8690 nv         1 OWG      -1.042900
     38 N36         -6.3760    28.0560    -3.4930 nb         1 OWG      -0.316000
     39 O08         -3.1390    33.5740    -8.4770 os         1 OWG      -0.337100
     40 O11         -5.5640    35.2210    -8.3360 os         1 OWG      -0.350100
     41 O30         -8.8200    37.8270    -6.3410 o          1 OWG      -0.613100
     42 O47        -11.6930    39.1440     1.3600 os         1 OWG      -0.335100
     43 O79        -14.8890    34.6120    -6.3320 os         1 OWG      -0.350100
     44 H1          -5.2510    36.3770   -10.0440 h1         1 OWG       0.037033
     45 H2          -3.7750    35.9330    -9.1700 h1         1 OWG       0.037033
     46 H3          -4.6450    34.7160   -10.1540 h1         1 OWG       0.037033
     47 H4          -3.4300    31.0050    -4.2570 hc         1 OWG       0.045200
     48 H5          -4.6890    31.7550    -3.3060 hc         1 OWG       0.045200
     49 H6          -2.9460    31.8480    -6.4340 ha         1 OWG       0.116000
     50 H7          -1.3740    33.0720    -9.4760 h1         1 OWG       0.041700
     51 H8          -1.2930    32.9420    -7.7080 h1         1 OWG       0.041700
     52 H9          -2.1790    31.7180    -8.6580 h1         1 OWG       0.041700
     53 H10         -7.8620    35.0680    -7.2200 hc         1 OWG       0.059700
     54 H11         -8.1870    34.3660    -5.6550 hc         1 OWG       0.059700
     55 H12         -6.7600    36.0720    -4.5570 hc         1 OWG       0.077200
     56 H13         -6.4480    36.8400    -6.1510 hc         1 OWG       0.077200
     57 H14         -8.6130    36.0170    -1.0560 h1         1 OWG       0.058700
     58 H15         -7.8870    37.3930    -1.9170 h1         1 OWG       0.058700
     59 H16        -10.4800    38.5910    -4.6510 h1         1 OWG       0.104700
     60 H17         -9.6360    37.6270     0.5330 ha         1 OWG       0.118000
     61 H18        -12.5930    39.1890    -3.1470 ha         1 OWG       0.134000
     62 H19         -6.6000    32.9870    -4.5100 ha         1 OWG       0.123000
     63 H20         -5.6910    30.2170    -6.5910 h4         1 OWG       0.027100
     64 H21        -14.7940    41.1270     0.2070 h1         1 OWG       0.037700
     65 H22        -14.1570    39.7010     1.0460 h1         1 OWG       0.037700
     66 H23        -13.1490    41.1690     0.8660 h1         1 OWG       0.037700
     67 H24        -11.2930    39.1260     3.4110 h1         1 OWG       0.043033
     68 H25        -10.8650    37.6310     2.5540 h1         1 OWG       0.043033
     69 H26         -9.8550    39.0920     2.3700 h1         1 OWG       0.043033
     70 H27        -11.6760    37.8990    -6.5900 ha         1 OWG       0.121000
     71 H28        -12.0240    35.5890    -2.9460 ha         1 OWG       0.121000
     72 H29        -13.5300    36.6230    -7.5840 ha         1 OWG       0.124000
     73 H30        -16.2350    34.1160    -7.8520 h1         1 OWG       0.043033
     74 H31        -15.8020    35.8360    -7.7700 h1         1 OWG       0.043033
     75 H32        -14.6370    34.6480    -8.4140 h1         1 OWG       0.043033
     76 H33        -13.8900    34.3010    -3.9510 ha         1 OWG       0.124000
     77 H34         -5.2600    28.6260    -1.4220 hn         1 OWG       0.479000
     78 H35         -4.4220    30.0430    -1.9580 hn         1 OWG       0.479000
     79 H36         -9.6460    35.2990    -3.0640 hn         1 OWG       0.430000
     80 H37         -7.7500    26.3370    -5.8080 hn         1 OWG       0.481500
     81 H38         -7.5780    26.0040    -4.1140 hn         1 OWG       0.481500
     82 O45        -13.3890    40.0290    -0.8800 os         1 OWG      -0.351100
     83 N01         -5.1780    29.3800    -2.0990 nv         1 OWG      -1.058900
@<TRIPOS>BOND
     1     1     8 ar  
     2     1    10 ar  
     3     1    40 1   
     4     2    40 1   
     5     2    44 1   
     6     2    45 1   
     7     2    46 1   
     8     3     4 ar  
     9     3    38 ar  
    10     3    83 1   
    11     4     5 1   
    12     4    23 ar  
    13     5     6 1   
    14     5    47 1   
    15     5    48 1   
    16     6     7 ar  
    17     6    22 ar  
    18     7     8 ar  
    19     7    49 1   
    20     8    39 1   
    21     9    39 1   
    22     9    50 1   
    23     9    51 1   
    24     9    52 1   
    25    10    11 1   
    26    10    22 ar  
    27    11    12 1   
    28    11    53 1   
    29    11    54 1   
    30    12    13 1   
    31    12    55 1   
    32    12    56 1   
    33    13    34 1   
    34    13    41 2   
    35    14    17 1   
    36    14    35 1   
    37    14    57 1   
    38    14    58 1   
    39    15    16 1   
    40    15    27 1   
    41    15    34 1   
    42    15    59 1   
    43    16    17 ar  
    44    16    21 ar  
    45    17    18 ar  
    46    18    19 ar  
    47    18    60 1   
    48    19    20 ar  
    49    19    42 1   
    50    20    21 ar  
    51    20    82 1   
    52    21    61 1   
    53    22    62 1   
    54    23    36 ar  
    55    23    63 1   
    56    24    36 ar  
    57    24    37 1   
    58    24    38 ar  
    59    25    64 1   
    60    25    65 1   
    61    25    66 1   
    62    25    82 1   
    63    26    42 1   
    64    26    67 1   
    65    26    68 1   
    66    26    69 1   
    67    27    28 ar  
    68    27    29 ar  
    69    28    30 ar  
    70    28    70 1   
    71    29    32 ar  
    72    29    71 1   
    73    30    33 ar  
    74    30    72 1   
    75    31    43 1   
    76    31    73 1   
    77    31    74 1   
    78    31    75 1   
    79    32    33 ar  
    80    32    76 1   
    81    33    43 1   
    82    34    35 1   
    83    35    79 1   
    84    37    80 1   
    85    37    81 1   
    86    77    83 1   
    87    78    83 1   
@<TRIPOS>SUBSTRUCTURE
     1 OWG         1 TEMP              0 ****  ****    0 ROOT
