@<TRIPOS>MOLECULE
OWH
   18    18     1     0     0
SMALL
No Charge or Current Charge


@<TRIPOS>ATOM
      1 C01         11.1850    22.2040    -6.1830 c3         1 OWH       0.077300
      2 C03         10.5060    24.6390    -6.2420 cs         1 OWH       0.394000
      3 C04         11.0310    26.0530    -6.3570 ca         1 OWH      -0.176600
      4 C05         12.4110    26.3290    -6.4900 ca         1 OWH       0.349900
      5 C07         12.0640    28.6190    -6.5710 ca         1 OWH       0.353900
      6 C08         10.6780    28.4520    -6.4420 ca         1 OWH      -0.168000
      7 C09         10.1490    27.1570    -6.3340 ca         1 OWH      -0.017000
      8 N02         11.4510    23.6430    -6.2760 ns         1 OWH      -0.391900
      9 N06         12.9230    27.5770    -6.5950 nb         1 OWH      -0.667000
     10 S10          8.8710    24.2950    -6.0840 s          1 OWH      -0.568400
     11 H1          12.1310    21.6500    -6.2390 h1         1 OWH       0.059033
     12 H2          10.6910    21.9790    -5.2290 h1         1 OWH       0.059033
     13 H3          10.5360    21.8920    -7.0120 h1         1 OWH       0.059033
     14 H4          13.1500    25.5290    -6.5150 h4         1 OWH       0.017100
     15 H5          12.5000    29.6140    -6.6570 h4         1 OWH       0.024100
     16 H6          10.0260    29.3210    -6.4280 ha         1 OWH       0.132000
     17 H7           9.0740    27.0250    -6.2340 ha         1 OWH       0.149000
     18 H8          12.4190    23.9250    -6.3740 hn         1 OWH       0.316500
@<TRIPOS>BOND
     1     1     8 1   
     2     1    11 1   
     3     1    12 1   
     4     1    13 1   
     5     2     3 1   
     6     2     8 1   
     7     2    10 2   
     8     3     4 ar  
     9     3     7 ar  
    10     4     9 ar  
    11     4    14 1   
    12     5     6 ar  
    13     5     9 ar  
    14     5    15 1   
    15     6     7 ar  
    16     6    16 1   
    17     7    17 1   
    18     8    18 1   
@<TRIPOS>SUBSTRUCTURE
     1 OWH         1 TEMP              0 ****  ****    0 ROOT
