@<TRIPOS>MOLECULE
OWH
   18    18     1     0     0
SMALL
bcc


@<TRIPOS>ATOM
      1 C01         11.1280    22.2870    -6.3370 c3         1 OWH       0.077300
      2 C03         10.5960    24.6520    -6.0290 cs         1 OWH       0.461000
      3 C04         11.0790    26.0400    -6.2200 ca         1 OWH      -0.241900
      4 C05         12.4280    26.3660    -6.0810 ca         1 OWH       0.415200
      5 C07         12.0500    28.5640    -6.5240 ca         1 OWH       0.419200
      6 C08         10.6870    28.3530    -6.6800 ca         1 OWH      -0.251300
      7 C09         10.1930    27.0720    -6.5160 ca         1 OWH      -0.035000
      8 N02         11.3940    23.6990    -6.4750 ns         1 OWH      -0.458900
      9 N06         12.9040    27.5950    -6.2220 nb         1 OWH      -0.667000
     10 S10          9.1460    24.3450    -5.2710 s          1 OWH      -0.568400
     11 H1          11.9770    21.7410    -6.7350 h1         1 OWH       0.059033
     12 H2          10.9870    22.0220    -5.2890 h1         1 OWH       0.059033
     13 H3          10.2280    22.0020    -6.8820 h1         1 OWH       0.059033
     14 H4          13.1530    25.6040    -5.8120 h4         1 OWH       0.017100
     15 H5          12.4660    29.5580    -6.6440 h4         1 OWH       0.024100
     16 H6          10.0300    29.1770    -6.9230 ha         1 OWH       0.150000
     17 H7           9.1360    26.8660    -6.6180 ha         1 OWH       0.167000
     18 H8          12.2140    23.9580    -7.0030 hn         1 OWH       0.316500
@<TRIPOS>BOND
     1     1     8 1   
     2     1    11 1   
     3     1    12 1   
     4     1    13 1   
     5     2     3 1   
     6     2     8 1   
     7     2    10 2   
     8     3     4 ar  
     9     3     7 ar  
    10     4     9 ar  
    11     4    14 1   
    12     5     6 ar  
    13     5     9 ar  
    14     5    15 1   
    15     6     7 ar  
    16     6    16 1   
    17     7    17 1   
    18     8    18 1   
@<TRIPOS>SUBSTRUCTURE
     1 OWH         1 TEMP              0 ****  ****    0 ROOT
