@<TRIPOS>MOLECULE
OWI
   90    93     1     0     0
SMALL
No Charge or Current Charge


@<TRIPOS>ATOM
      1 C10        133.6680   195.8620   130.8370 ca         1 OWI      -0.022300
      2 C13        134.9740   197.8820   130.4280 ca         1 OWI      -0.011000
      3 C15        137.5260   199.3870   126.4920 c3         1 OWI       0.201800
      4 C17        138.1860   197.7500   124.5910 c3         1 OWI       0.147800
      5 C20        140.4300   195.9500   121.9610 c6         1 OWI      -0.067700
      6 C21        141.7840   196.6090   122.3550 c6         1 OWI      -0.070900
      7 C22        142.9830   195.9030   121.6730 c6         1 OWI      -0.072900
      8 C24        141.4730   195.2150   119.7330 c6         1 OWI      -0.072900
      9 C26        139.2240   195.5000   124.8330 c3         1 OWI       0.151800
     10 C28        139.2180   194.3870   127.2240 c3         1 OWI       0.222800
     11 C02        137.4350   196.3540   128.7960 c2         1 OWI      -0.114400
     12 C03        137.6720   197.8330   128.4510 c3         1 OWI       0.225000
     13 C07        134.6880   197.7950   129.0490 ca         1 OWI      -0.315500
     14 C08        133.8700   196.7500   128.5720 ca         1 OWI      -0.011000
     15 C09        133.3640   195.7910   129.4650 ca         1 OWI      -0.135000
     16 C11        133.1360   194.8150   131.8000 c3         1 OWI      -0.057800
     17 C12        134.4720   196.9130   131.3130 ca         1 OWI      -0.135000
     18 C16        138.6620   198.8260   125.5990 c3         1 OWI      -0.071400
     19 C23        142.8160   195.8720   120.1350 c6         1 OWI      -0.074400
     20 C25        140.2760   195.9260   120.4140 c6         1 OWI      -0.070900
     21 C27        139.6620   195.5560   126.3120 c3         1 OWI      -0.081400
     22 C31        135.5670   192.6040   127.6910 ca         1 OWI      -0.361500
     23 C32        134.2600   192.8250   127.2290 ca         1 OWI       0.030500
     24 C33        133.1660   192.5020   128.0470 ca         1 OWI      -0.213500
     25 C34        133.3530   191.9630   129.3380 ca         1 OWI       0.394000
     26 C38        134.6750   191.7650   129.7910 ca         1 OWI      -0.213500
     27 C39        135.7740   192.0820   128.9780 ca         1 OWI       0.030500
     28 C42        136.9440   195.4500   127.6610 c3         1 OWI       0.246000
     29 N04        136.8210   198.4120   127.3740 n3         1 OWI      -0.724500
     30 N18        139.2480   196.8110   124.1100 n3         1 OWI      -0.706600
     31 N29        137.7570   194.2160   127.4700 n3         1 OWI      -0.770500
     32 N35        132.2350   191.6190   130.1560 nh         1 OWI      -0.832400
     33 O06        135.6300   200.2660   128.6600 o          1 OWI      -0.540500
     34 O14        134.4480   199.0490   126.7330 o          1 OWI      -0.540500
     35 S05        135.3230   199.0410   127.9110 sy         1 OWI       1.174600
     36 S30        136.9790   192.9510   126.6360 sy         1 OWI       1.191600
     37 H1         135.5910   198.6910   130.8170 ha         1 OWI       0.133500
     38 H2         137.9410   200.2020   127.1020 h1         1 OWI       0.057700
     39 H3         136.8040   199.8530   125.8070 h1         1 OWI       0.057700
     40 H4         137.7320   198.2890   123.7480 h1         1 OWI       0.050200
     41 H5         137.3630   197.1790   125.0380 h1         1 OWI       0.050200
     42 H6         140.4320   194.9080   122.3050 hc         1 OWI       0.054700
     43 H7         141.9190   196.5760   123.4450 hc         1 OWI       0.041200
     44 H8         141.7750   197.6720   122.0760 hc         1 OWI       0.041200
     45 H9         143.0740   194.8770   122.0560 hc         1 OWI       0.037950
     46 H10        143.9160   196.4180   121.9360 hc         1 OWI       0.037950
     47 H11        141.3550   195.2480   118.6410 hc         1 OWI       0.037950
     48 H12        141.4820   194.1530   120.0140 hc         1 OWI       0.037950
     49 H13        138.2090   195.0980   124.7740 h1         1 OWI       0.047700
     50 H14        139.8750   194.7640   124.3470 h1         1 OWI       0.047700
     51 H15        139.6710   193.4640   126.8410 h1         1 OWI       0.048700
     52 H16        139.6950   194.5630   128.1970 h1         1 OWI       0.048700
     53 H17        137.9940   196.5100   130.8490 ha         1 OWI       0.169000
     54 H18        137.4750   194.8240   130.2720 ha         1 OWI       0.169000
     55 H19        138.7320   197.9350   128.1950 h1         1 OWI       0.057700
     56 H20        137.5660   198.4320   129.3650 h1         1 OWI       0.057700
     57 H21        133.6270   196.6740   127.5130 ha         1 OWI       0.133500
     58 H22        132.7320   194.9910   129.0900 ha         1 OWI       0.117000
     59 H23        132.2540   194.3060   131.3940 hc         1 OWI       0.049700
     60 H24        133.9010   194.0570   132.0050 hc         1 OWI       0.049700
     61 H25        132.8450   195.2670   132.7570 hc         1 OWI       0.049700
     62 H26        134.7090   196.9810   132.3730 ha         1 OWI       0.117000
     63 H27        139.4920   198.4740   126.2140 hc         1 OWI       0.048200
     64 H28        139.0830   199.6570   125.0210 hc         1 OWI       0.048200
     65 H29        139.1460   197.6600   122.1720 h1         1 OWI       0.036200
     66 H30        138.2970   196.1230   122.3360 h1         1 OWI       0.036200
     67 H31        143.6510   195.3230   119.6790 hc         1 OWI       0.034700
     68 H32        142.8610   196.8950   119.7370 hc         1 OWI       0.034700
     69 H33        140.1950   196.9520   120.0300 hc         1 OWI       0.041200
     70 H34        139.3430   195.4150   120.1380 hc         1 OWI       0.041200
     71 H35        140.7550   195.6260   126.3410 hc         1 OWI       0.047700
     72 H36        139.3020   196.4650   126.7730 hc         1 OWI       0.047700
     73 H37        134.0820   193.2320   126.2350 ha         1 OWI       0.118000
     74 H38        132.1700   192.6820   127.6580 ha         1 OWI       0.114500
     75 H39        133.0750   191.7980   132.1140 h1         1 OWI       0.040867
     76 H40        131.4430   191.1220   132.0860 h1         1 OWI       0.040867
     77 H41        132.8160   190.1190   131.5580 h1         1 OWI       0.040867
     78 H42        130.1410   191.1870   130.3310 h1         1 OWI       0.040867
     79 H43        130.5250   192.6930   129.4680 h1         1 OWI       0.040867
     80 H44        130.7790   191.1070   128.6820 h1         1 OWI       0.040867
     81 H45        134.8710   191.3510   130.7730 ha         1 OWI       0.114500
     82 H46        136.7850   191.9100   129.3460 ha         1 OWI       0.118000
     83 H47        136.8850   196.0010   126.7160 h1         1 OWI       0.077200
     84 H48        135.9110   195.1760   127.9070 h1         1 OWI       0.077200
     85 C01        137.6470   195.8740   130.0350 c2         1 OWI      -0.311000
     86 C19        139.2090   196.6620   122.6280 c3         1 OWI       0.160800
     87 O40        136.5340   193.4640   125.3380 o          1 OWI      -0.547000
     88 C36        132.4030   191.1380   131.5510 c3         1 OWI       0.214100
     89 C37        130.8470   191.6560   129.6310 c3         1 OWI       0.214100
     90 O41        137.8680   191.7880   126.7450 o          1 OWI      -0.547000
@<TRIPOS>BOND
     1     1    15 ar  
     2     1    16 1   
     3     1    17 ar  
     4     2    13 ar  
     5     2    17 ar  
     6     2    37 1   
     7     3    18 1   
     8     3    29 1   
     9     3    38 1   
    10     3    39 1   
    11     4    18 1   
    12     4    30 1   
    13     4    40 1   
    14     4    41 1   
    15     5     6 1   
    16     5    20 1   
    17     5    42 1   
    18     5    86 1   
    19     6     7 1   
    20     6    43 1   
    21     6    44 1   
    22     7    19 1   
    23     7    45 1   
    24     7    46 1   
    25     8    19 1   
    26     8    20 1   
    27     8    47 1   
    28     8    48 1   
    29     9    21 1   
    30     9    30 1   
    31     9    49 1   
    32     9    50 1   
    33    10    21 1   
    34    10    31 1   
    35    10    51 1   
    36    10    52 1   
    37    11    12 1   
    38    11    28 1   
    39    11    85 2   
    40    12    29 1   
    41    12    55 1   
    42    12    56 1   
    43    13    14 ar  
    44    13    35 1   
    45    14    15 ar  
    46    14    57 1   
    47    15    58 1   
    48    16    59 1   
    49    16    60 1   
    50    16    61 1   
    51    17    62 1   
    52    18    63 1   
    53    18    64 1   
    54    19    67 1   
    55    19    68 1   
    56    20    69 1   
    57    20    70 1   
    58    21    71 1   
    59    21    72 1   
    60    22    23 ar  
    61    22    27 ar  
    62    22    36 1   
    63    23    24 ar  
    64    23    73 1   
    65    24    25 ar  
    66    24    74 1   
    67    25    26 ar  
    68    25    32 1   
    69    26    27 ar  
    70    26    81 1   
    71    27    82 1   
    72    28    31 1   
    73    28    83 1   
    74    28    84 1   
    75    29    35 1   
    76    30    86 1   
    77    31    36 1   
    78    32    88 1   
    79    32    89 1   
    80    33    35 2   
    81    34    35 2   
    82    36    87 2   
    83    36    90 2   
    84    53    85 1   
    85    54    85 1   
    86    65    86 1   
    87    66    86 1   
    88    75    88 1   
    89    76    88 1   
    90    77    88 1   
    91    78    89 1   
    92    79    89 1   
    93    80    89 1   
@<TRIPOS>SUBSTRUCTURE
     1 OWI         1 TEMP              0 ****  ****    0 ROOT
