@<TRIPOS>MOLECULE
OWI
   90    93     1     0     0
SMALL
abcg2


@<TRIPOS>ATOM
      1 C10        135.4860   199.9170   132.8040 ca         1 OWI      -0.022300
      2 C13        135.9750   200.3970   130.4770 ca         1 OWI      -0.011000
      3 C15        137.7970   199.0290   127.5310 c3         1 OWI       0.201800
      4 C17        138.5340   197.5210   125.6240 c3         1 OWI       0.147800
      5 C20        140.3550   195.9310   122.6800 c6         1 OWI      -0.067700
      6 C21        141.7570   196.4500   122.3460 c6         1 OWI      -0.070900
      7 C22        142.5300   195.4580   121.4700 c6         1 OWI      -0.072900
      8 C24        140.3340   194.5810   120.5490 c6         1 OWI      -0.072900
      9 C26        139.4620   195.2710   125.3710 c3         1 OWI       0.151800
     10 C28        138.1160   193.9630   127.1050 c3         1 OWI       0.222800
     11 C02        136.4910   195.7270   128.9390 c2         1 OWI      -0.114400
     12 C03        137.2250   197.0520   128.9790 c3         1 OWI       0.225000
     13 C07        135.3350   199.2160   130.1070 ca         1 OWI      -0.315500
     14 C08        134.7740   198.3810   131.0680 ca         1 OWI      -0.011000
     15 C09        134.8540   198.7370   132.4070 ca         1 OWI      -0.135000
     16 C11        135.5390   200.3120   134.2530 c3         1 OWI      -0.057800
     17 C12        136.0470   200.7370   131.8200 ca         1 OWI      -0.135000
     18 C16        138.9620   198.3280   126.8450 c3         1 OWI      -0.071400
     19 C23        141.7440   195.0730   120.2140 c6         1 OWI      -0.074400
     20 C25        139.5780   195.5940   121.4040 c6         1 OWI      -0.070900
     21 C27        139.2720   194.9360   126.8560 c3         1 OWI      -0.081400
     22 C31        135.0280   192.5810   126.0120 ca         1 OWI      -0.361500
     23 C32        133.8970   192.2020   125.2880 ca         1 OWI       0.030500
     24 C33        133.0950   191.1680   125.7270 ca         1 OWI      -0.213500
     25 C34        133.3830   190.4680   126.9250 ca         1 OWI       0.394000
     26 C38        134.5500   190.8550   127.6270 ca         1 OWI      -0.213500
     27 C39        135.3470   191.8910   127.1800 ca         1 OWI       0.030500
     28 C42        135.8910   195.1660   127.6750 c3         1 OWI       0.246000
     29 N04        136.7610   198.0880   128.0430 n3         1 OWI      -0.724500
     30 N18        139.6100   196.7020   125.0300 n3         1 OWI      -0.706600
     31 N29        136.8220   194.5410   126.6840 n3         1 OWI      -0.770500
     32 N35        132.5590   189.4670   127.3530 nh         1 OWI      -0.832400
     33 O06        135.1610   199.9570   127.5990 o          1 OWI      -0.540500
     34 O14        134.2820   197.7310   128.2590 o          1 OWI      -0.540500
     35 S05        135.2870   198.7590   128.3980 sy         1 OWI       1.174600
     36 S30        136.0340   193.8930   125.3980 sy         1 OWI       1.191600
     37 H1         136.4110   201.0400   129.7260 ha         1 OWI       0.133500
     38 H2         138.1780   199.6590   128.3410 h1         1 OWI       0.057700
     39 H3         137.2960   199.6710   126.8140 h1         1 OWI       0.057700
     40 H4         138.1780   198.2290   124.8730 h1         1 OWI       0.050200
     41 H5         137.6730   196.8920   125.8690 h1         1 OWI       0.050200
     42 H6         140.4980   194.9890   123.2080 hc         1 OWI       0.054700
     43 H7         142.3070   196.6360   123.2740 hc         1 OWI       0.041200
     44 H8         141.6760   197.4150   121.8320 hc         1 OWI       0.041200
     45 H9         142.7380   194.5540   122.0540 hc         1 OWI       0.037950
     46 H10        143.4970   195.8830   121.1880 hc         1 OWI       0.037950
     47 H11        139.7820   194.3700   119.6300 hc         1 OWI       0.037950
     48 H12        140.3870   193.6390   121.1110 hc         1 OWI       0.037950
     49 H13        138.6220   194.8570   124.8080 h1         1 OWI       0.047700
     50 H14        140.3490   194.7440   125.0270 h1         1 OWI       0.047700
     51 H15        138.2810   193.0370   126.5590 h1         1 OWI       0.048700
     52 H16        138.0550   193.7130   128.1640 h1         1 OWI       0.048700
     53 H17        136.6530   195.4780   131.0280 ha         1 OWI       0.169000
     54 H18        135.8440   194.0940   130.1050 ha         1 OWI       0.169000
     55 H19        138.2720   196.8870   128.7490 h1         1 OWI       0.057700
     56 H20        137.2110   197.4220   130.0080 h1         1 OWI       0.057700
     57 H21        134.2890   197.4630   130.7700 ha         1 OWI       0.133500
     58 H22        134.4190   198.0860   133.1550 ha         1 OWI       0.117000
     59 H23        134.6590   200.9070   134.5160 hc         1 OWI       0.049700
     60 H24        135.5470   199.4360   134.9010 hc         1 OWI       0.049700
     61 H25        136.4190   200.9190   134.4650 hc         1 OWI       0.049700
     62 H26        136.5460   201.6530   132.1100 ha         1 OWI       0.117000
     63 H27        139.5260   197.7110   127.5440 hc         1 OWI       0.048200
     64 H28        139.6600   199.1120   126.5380 hc         1 OWI       0.048200
     65 H29        139.8740   197.9170   123.3590 h1         1 OWI       0.036200
     66 H30        138.4930   196.8340   123.2420 h1         1 OWI       0.036200
     67 H31        142.2870   194.3060   119.6540 hc         1 OWI       0.034700
     68 H32        141.6690   195.9460   119.5550 hc         1 OWI       0.034700
     69 H33        139.3960   196.5110   120.8300 hc         1 OWI       0.041200
     70 H34        138.5970   195.1950   121.6750 hc         1 OWI       0.041200
     71 H35        140.1820   194.4940   127.2690 hc         1 OWI       0.047700
     72 H36        139.0950   195.8270   127.4420 hc         1 OWI       0.047700
     73 H37        133.6310   192.7300   124.3820 ha         1 OWI       0.118000
     74 H38        132.2240   190.9100   125.1440 ha         1 OWI       0.114500
     75 H39        133.3910   189.3440   129.2830 h1         1 OWI       0.040867
     76 H40        131.7210   188.8120   129.1500 h1         1 OWI       0.040867
     77 H41        133.0280   187.7820   128.5400 h1         1 OWI       0.040867
     78 H42        131.1270   188.0240   126.9410 h1         1 OWI       0.040867
     79 H43        130.8510   189.5400   126.0920 h1         1 OWI       0.040867
     80 H44        132.1400   188.4470   125.5500 h1         1 OWI       0.040867
     81 H45        134.8460   190.3410   128.5280 ha         1 OWI       0.114500
     82 H46        136.2270   192.1480   127.7530 ha         1 OWI       0.118000
     83 H47        135.3540   195.9500   127.1530 h1         1 OWI       0.077200
     84 H48        135.1620   194.4170   127.9900 h1         1 OWI       0.077200
     85 C01        136.3230   195.0650   130.0820 c2         1 OWI      -0.311000
     86 C19        139.5460   196.8920   123.5600 c3         1 OWI       0.160800
     87 O40        135.1460   194.9090   124.8710 o          1 OWI      -0.547000
     88 C36        132.6900   188.8170   128.6450 c3         1 OWI       0.214100
     89 C37        131.6230   188.8450   126.4280 c3         1 OWI       0.214100
     90 O41        137.0160   193.3370   124.4850 o          1 OWI      -0.547000
@<TRIPOS>BOND
     1     1    15 ar  
     2     1    16 1   
     3     1    17 ar  
     4     2    13 ar  
     5     2    17 ar  
     6     2    37 1   
     7     3    18 1   
     8     3    29 1   
     9     3    38 1   
    10     3    39 1   
    11     4    18 1   
    12     4    30 1   
    13     4    40 1   
    14     4    41 1   
    15     5     6 1   
    16     5    20 1   
    17     5    42 1   
    18     5    86 1   
    19     6     7 1   
    20     6    43 1   
    21     6    44 1   
    22     7    19 1   
    23     7    45 1   
    24     7    46 1   
    25     8    19 1   
    26     8    20 1   
    27     8    47 1   
    28     8    48 1   
    29     9    21 1   
    30     9    30 1   
    31     9    49 1   
    32     9    50 1   
    33    10    21 1   
    34    10    31 1   
    35    10    51 1   
    36    10    52 1   
    37    11    12 1   
    38    11    28 1   
    39    11    85 2   
    40    12    29 1   
    41    12    55 1   
    42    12    56 1   
    43    13    14 ar  
    44    13    35 1   
    45    14    15 ar  
    46    14    57 1   
    47    15    58 1   
    48    16    59 1   
    49    16    60 1   
    50    16    61 1   
    51    17    62 1   
    52    18    63 1   
    53    18    64 1   
    54    19    67 1   
    55    19    68 1   
    56    20    69 1   
    57    20    70 1   
    58    21    71 1   
    59    21    72 1   
    60    22    23 ar  
    61    22    27 ar  
    62    22    36 1   
    63    23    24 ar  
    64    23    73 1   
    65    24    25 ar  
    66    24    74 1   
    67    25    26 ar  
    68    25    32 1   
    69    26    27 ar  
    70    26    81 1   
    71    27    82 1   
    72    28    31 1   
    73    28    83 1   
    74    28    84 1   
    75    29    35 1   
    76    30    86 1   
    77    31    36 1   
    78    32    88 1   
    79    32    89 1   
    80    33    35 2   
    81    34    35 2   
    82    36    87 2   
    83    36    90 2   
    84    53    85 1   
    85    54    85 1   
    86    65    86 1   
    87    66    86 1   
    88    75    88 1   
    89    76    88 1   
    90    77    88 1   
    91    78    89 1   
    92    79    89 1   
    93    80    89 1   
@<TRIPOS>SUBSTRUCTURE
     1 OWI         1 TEMP              0 ****  ****    0 ROOT
