@<TRIPOS>MOLECULE
OWJ
   73    77     1     0     0
SMALL
bcc


@<TRIPOS>ATOM
      1 C29         -2.0900    32.7110    -8.5730 c3         1 OWJ       0.121700
      2 C30         -3.8250    32.2450    -6.4190 ca         1 OWJ      -0.202000
      3 C31         -4.7190    32.0490    -5.3690 ca         1 OWJ      -0.053300
      4 C32         -4.6140    30.8160    -4.5170 c3         1 OWJ       0.046200
      5 C34         -6.0900    29.6440    -6.2400 ca         1 OWJ       0.506200
      6 C39         -5.3470    28.3820    -4.4050 ca         1 OWJ       0.744200
      7 C02         -8.4280    37.0370    -5.7710 c          1 OWJ       0.694300
      8 C05         -8.5640    36.7910    -2.2840 ce         1 OWJ       0.382800
      9 C06         -9.7010    37.6010    -1.8910 ca         1 OWJ      -0.161900
     10 C07         -9.9630    37.9020    -0.5550 ca         1 OWJ      -0.099000
     11 C08        -11.0190    38.7360    -0.2300 ca         1 OWJ      -0.127000
     12 C09        -11.8070    39.2760    -1.2410 ca         1 OWJ      -0.114000
     13 C10        -11.5470    38.9750    -2.5700 ca         1 OWJ      -0.112000
     14 C11        -10.4980    38.1300    -2.8990 ca         1 OWJ      -0.072300
     15 C12        -10.2530    37.7370    -4.3330 c6         1 OWJ       0.194300
     16 C13        -11.3400    36.8000    -4.8200 ca         1 OWJ      -0.099300
     17 C14        -12.2600    37.2410    -5.7630 ca         1 OWJ      -0.108000
     18 C15        -13.2870    36.4120    -6.2000 ca         1 OWJ      -0.075800
     19 C16        -14.2640    36.8770    -7.2410 c3         1 OWJ      -0.046300
     20 C17        -13.3700    35.1250    -5.6740 ca         1 OWJ      -0.120000
     21 C18        -12.4600    34.6600    -4.7310 ca         1 OWJ      -0.075800
     22 C19        -12.5720    33.2750    -4.1630 c3         1 OWJ      -0.046300
     23 C20        -11.4430    35.5130    -4.3080 ca         1 OWJ      -0.108000
     24 C21         -7.2020    36.2600    -6.0670 ce         1 OWJ      -0.189200
     25 C23         -5.8580    34.1150    -5.9620 ca         1 OWJ      -0.040800
     26 C24         -4.9610    34.2960    -7.0150 ca         1 OWJ       0.089100
     27 C26         -5.7750    35.1480    -9.0340 c3         1 OWJ       0.123700
     28 C27         -3.9410    33.3580    -7.2420 ca         1 OWJ       0.119100
     29 C33         -5.3550    29.6290    -5.0780 ca         1 OWJ      -0.441900
     30 C36         -6.6900    27.4850    -6.0080 ca         1 OWJ       0.928900
     31 C41         -5.7170    32.9790    -5.1520 ca         1 OWJ      -0.139000
     32 N03         -8.9250    37.1230    -4.4940 n          1 OWJ      -0.246800
     33 N04         -8.1960    36.5970    -3.4870 n2         1 OWJ      -0.426300
     34 N35         -6.7610    28.6010    -6.7300 nb         1 OWJ      -0.801000
     35 N37         -7.4000    26.4160    -6.4430 nv         1 OWJ      -0.942500
     36 N38         -6.0080    27.3290    -4.8730 nb         1 OWJ      -0.855000
     37 O01         -9.0000    37.6090    -6.6840 o          1 OWJ      -0.580100
     38 O28         -3.1260    33.6270    -8.2760 os         1 OWJ      -0.302900
     39 H1          -1.5700    33.1070    -9.4420 h1         1 OWJ       0.041700
     40 H2          -1.3780    32.6180    -7.7490 h1         1 OWJ       0.041700
     41 H3          -2.4790    31.7190    -8.8160 h1         1 OWJ       0.041700
     42 H4          -3.0440    31.5130    -6.5820 ha         1 OWJ       0.138000
     43 H5          -3.5560    30.5640    -4.3890 hc         1 OWJ       0.044700
     44 H6          -4.9920    31.0390    -3.5130 hc         1 OWJ       0.044700
     45 H7          -6.1490    30.5560    -6.8250 h4         1 OWJ       0.024100
     46 H8          -7.9340    36.3480    -1.5210 h4         1 OWJ       0.038800
     47 H9          -9.3310    37.4880     0.2220 ha         1 OWJ       0.134000
     48 H10        -11.2260    38.9700     0.8050 ha         1 OWJ       0.135000
     49 H11        -12.6310    39.9320    -0.9920 ha         1 OWJ       0.134000
     50 H12        -12.1730    39.3930    -3.3500 ha         1 OWJ       0.140000
     51 H13        -10.2730    38.6380    -4.9480 h1         1 OWJ       0.091700
     52 H14        -12.1720    38.2450    -6.1630 ha         1 OWJ       0.132500
     53 H15        -14.0040    36.4830    -8.2250 hc         1 OWJ       0.042033
     54 H16        -15.2770    36.5410    -7.0180 hc         1 OWJ       0.042033
     55 H17        -14.2780    37.9640    -7.3190 hc         1 OWJ       0.042033
     56 H18        -14.1640    34.4660    -6.0120 ha         1 OWJ       0.127000
     57 H19        -11.6370    32.7230    -4.2690 hc         1 OWJ       0.042033
     58 H20        -12.8060    33.3050    -3.0970 hc         1 OWJ       0.042033
     59 H21        -13.3560    32.7020    -4.6570 hc         1 OWJ       0.042033
     60 H22        -10.7360    35.1580    -3.5650 ha         1 OWJ       0.132500
     61 H23         -6.5860    36.7250    -6.8220 ha         1 OWJ       0.166000
     62 H24         -7.6160    34.6160    -4.8640 ha         1 OWJ       0.131000
     63 H25         -5.7610    36.0790    -9.5980 h1         1 OWJ       0.039367
     64 H26         -5.3280    34.3610    -9.6430 h1         1 OWJ       0.039367
     65 H27         -6.8130    34.8830    -8.8180 h1         1 OWJ       0.039367
     66 H28         -6.4150    32.8330    -4.3360 ha         1 OWJ       0.138000
     67 H29         -7.7230    26.4260    -7.3950 hn         1 OWJ       0.431300
     68 H30         -7.1730    25.5140    -6.0620 hn         1 OWJ       0.431300
     69 H31         -4.5900    27.2930    -2.8700 hn         1 OWJ       0.432300
     70 H32         -4.0050    28.8930    -2.9390 hn         1 OWJ       0.432300
     71 O25         -5.0360    35.3740    -7.8370 os         1 OWJ      -0.325900
     72 C22         -6.9470    35.0290    -5.6100 cf         1 OWJ      -0.050200
     73 N40         -4.6910    28.2240    -3.2400 nv         1 OWJ      -0.963500
@<TRIPOS>BOND
     1     1    38 1   
     2     1    39 1   
     3     1    40 1   
     4     1    41 1   
     5     2     3 ar  
     6     2    28 ar  
     7     2    42 1   
     8     3     4 1   
     9     3    31 ar  
    10     4    29 1   
    11     4    43 1   
    12     4    44 1   
    13     5    29 ar  
    14     5    34 ar  
    15     5    45 1   
    16     6    29 ar  
    17     6    36 ar  
    18     6    73 1   
    19     7    24 1   
    20     7    32 1   
    21     7    37 2   
    22     8     9 1   
    23     8    33 2   
    24     8    46 1   
    25     9    10 ar  
    26     9    14 ar  
    27    10    11 ar  
    28    10    47 1   
    29    11    12 ar  
    30    11    48 1   
    31    12    13 ar  
    32    12    49 1   
    33    13    14 ar  
    34    13    50 1   
    35    14    15 1   
    36    15    16 1   
    37    15    32 1   
    38    15    51 1   
    39    16    17 ar  
    40    16    23 ar  
    41    17    18 ar  
    42    17    52 1   
    43    18    19 1   
    44    18    20 ar  
    45    19    53 1   
    46    19    54 1   
    47    19    55 1   
    48    20    21 ar  
    49    20    56 1   
    50    21    22 1   
    51    21    23 ar  
    52    22    57 1   
    53    22    58 1   
    54    22    59 1   
    55    23    60 1   
    56    24    61 1   
    57    24    72 2   
    58    25    26 ar  
    59    25    31 ar  
    60    25    72 1   
    61    26    28 ar  
    62    26    71 1   
    63    27    63 1   
    64    27    64 1   
    65    27    65 1   
    66    27    71 1   
    67    28    38 1   
    68    30    34 ar  
    69    30    35 1   
    70    30    36 ar  
    71    31    66 1   
    72    32    33 1   
    73    35    67 1   
    74    35    68 1   
    75    62    72 1   
    76    69    73 1   
    77    70    73 1   
@<TRIPOS>SUBSTRUCTURE
     1 OWJ         1 TEMP              0 ****  ****    0 ROOT
