@<TRIPOS>MOLECULE
OWJ
   73    77     1     0     0
SMALL
No Charge or Current Charge


@<TRIPOS>ATOM
      1 C29         -2.1550    32.8560    -9.4760 c3         1 OWJ       0.144900
      2 C30         -3.5120    32.3130    -6.9750 ca         1 OWJ      -0.184000
      3 C31         -4.1770    32.0710    -5.7610 ca         1 OWJ      -0.053300
      4 C32         -3.7480    30.9180    -4.8590 c3         1 OWJ       0.046200
      5 C34         -5.4850    29.4470    -6.0360 ca         1 OWJ       0.177900
      6 C39         -4.9610    28.9110    -3.7680 ca         1 OWJ       0.415900
      7 C02         -8.2830    36.9430    -5.5040 c          1 OWJ       0.627300
      8 C05         -8.9860    35.5920    -2.3130 ce         1 OWJ       0.382800
      9 C06         -9.8470    36.6490    -1.7130 ca         1 OWJ      -0.161900
     10 C07        -10.0010    36.7640    -0.3180 ca         1 OWJ      -0.081000
     11 C08        -10.8370    37.7600     0.2170 ca         1 OWJ      -0.109000
     12 C09        -11.5220    38.6390    -0.6400 ca         1 OWJ      -0.096000
     13 C10        -11.3720    38.5240    -2.0320 ca         1 OWJ      -0.094000
     14 C11        -10.5350    37.5280    -2.5710 ca         1 OWJ      -0.072300
     15 C12        -10.3560    37.3850    -4.0910 c6         1 OWJ       0.194300
     16 C13        -11.6230    36.8540    -4.7760 ca         1 OWJ      -0.099300
     17 C14        -12.1210    37.4960    -5.9260 ca         1 OWJ      -0.090000
     18 C15        -13.2810    37.0200    -6.5650 ca         1 OWJ      -0.075800
     19 C16        -13.8110    37.7190    -7.8080 c3         1 OWJ      -0.046300
     20 C17        -13.9420    35.8900    -6.0510 ca         1 OWJ      -0.102000
     21 C18        -13.4510    35.2360    -4.9060 ca         1 OWJ      -0.075800
     22 C19        -14.1700    34.0150    -4.3520 c3         1 OWJ      -0.046300
     23 C20        -12.2940    35.7220    -4.2720 ca         1 OWJ      -0.090000
     24 C21         -7.1300    36.0920    -5.9690 ce         1 OWJ      -0.239200
     25 C23         -5.6680    33.9710    -6.1870 ca         1 OWJ      -0.040800
     26 C24         -5.0150    34.1920    -7.4280 ca         1 OWJ       0.089100
     27 C26         -6.0380    34.8710    -9.5410 c3         1 OWJ       0.146900
     28 C27         -3.9230    33.3710    -7.8160 ca         1 OWJ       0.119100
     29 C33         -4.7420    29.7500    -4.8750 ca         1 OWJ      -0.311300
     30 C36         -6.4790    27.7140    -4.9440 ca         1 OWJ       0.402900
     31 C41         -5.2450    32.8980    -5.3790 ca         1 OWJ      -0.121000
     32 N03         -9.1620    36.5510    -4.4440 n          1 OWJ      -0.179800
     33 N04         -8.9080    35.4700    -3.6040 n2         1 OWJ      -0.426300
     34 N35         -6.3610    28.4250    -6.0710 nb         1 OWJ      -0.275000
     35 N37         -7.3540    26.6840    -4.9740 nv         1 OWJ      -1.052900
     36 N38         -5.8270    27.8930    -3.7920 nb         1 OWJ      -0.329000
     37 O01         -8.4510    38.0180    -6.0700 o          1 OWJ      -0.580100
     38 O28         -3.2690    33.6370    -9.0090 os         1 OWJ      -0.326100
     39 H1          -1.7980    33.2440   -10.4390 h1         1 OWJ       0.041700
     40 H2          -1.3220    32.8990    -8.7630 h1         1 OWJ       0.041700
     41 H3          -2.4460    31.8080    -9.6190 h1         1 OWJ       0.041700
     42 H4          -2.6840    31.6680    -7.2520 ha         1 OWJ       0.120000
     43 H5          -2.7570    30.5530    -5.1530 hc         1 OWJ       0.044700
     44 H6          -3.6270    31.3100    -3.8420 hc         1 OWJ       0.044700
     45 H7          -5.3810    30.0240    -6.9530 h4         1 OWJ       0.024100
     46 H8          -8.5280    34.8650    -1.6390 h4         1 OWJ       0.038800
     47 H9          -9.4770    36.0840     0.3510 ha         1 OWJ       0.116000
     48 H10        -10.9550    37.8490     1.2950 ha         1 OWJ       0.117000
     49 H11        -12.1690    39.4090    -0.2250 ha         1 OWJ       0.116000
     50 H12        -11.9070    39.2040    -2.6920 ha         1 OWJ       0.122000
     51 H13        -10.1870    38.4070    -4.4590 h1         1 OWJ       0.091700
     52 H14        -11.6050    38.3660    -6.3280 ha         1 OWJ       0.114500
     53 H15        -13.3540    37.3040    -8.7130 hc         1 OWJ       0.042033
     54 H16        -14.8980    37.6050    -7.8990 hc         1 OWJ       0.042033
     55 H17        -13.5950    38.7940    -7.7850 hc         1 OWJ       0.042033
     56 H18        -14.8380    35.5180    -6.5430 ha         1 OWJ       0.109000
     57 H19        -13.4690    33.3210    -3.8730 hc         1 OWJ       0.042033
     58 H20        -14.9160    34.3070    -3.6040 hc         1 OWJ       0.042033
     59 H21        -14.6890    33.4620    -5.1450 hc         1 OWJ       0.042033
     60 H22        -11.9140    35.2170    -3.3860 ha         1 OWJ       0.114500
     61 H23         -6.4830    36.6430    -6.6430 ha         1 OWJ       0.216000
     62 H24         -7.4570    34.2110    -5.0460 ha         1 OWJ       0.181000
     63 H25         -6.3870    35.7820   -10.0430 h1         1 OWJ       0.039367
     64 H26         -5.3120    34.3800   -10.2000 h1         1 OWJ       0.039367
     65 H27         -6.8980    34.2010    -9.4140 h1         1 OWJ       0.039367
     66 H28         -5.7480    32.7050    -4.4330 ha         1 OWJ       0.120000
     67 H29         -7.6980    26.3690    -5.8780 hn         1 OWJ       0.486500
     68 H30         -7.3120    25.9900    -4.2310 hn         1 OWJ       0.486500
     69 H31         -4.3580    28.2920    -1.9220 hn         1 OWJ       0.487500
     70 H32         -3.4530    29.6130    -2.5740 hn         1 OWJ       0.487500
     71 O25         -5.4600    35.1970    -8.2650 os         1 OWJ      -0.349100
     72 C22         -6.8050    34.7880    -5.6970 cf         1 OWJ      -0.100200
     73 N40         -4.3000    29.0530    -2.5930 nv         1 OWJ      -1.073900
@<TRIPOS>BOND
     1     1    38 1   
     2     1    39 1   
     3     1    40 1   
     4     1    41 1   
     5     2     3 ar  
     6     2    28 ar  
     7     2    42 1   
     8     3     4 1   
     9     3    31 ar  
    10     4    29 1   
    11     4    43 1   
    12     4    44 1   
    13     5    29 ar  
    14     5    34 ar  
    15     5    45 1   
    16     6    29 ar  
    17     6    36 ar  
    18     6    73 1   
    19     7    24 1   
    20     7    32 1   
    21     7    37 2   
    22     8     9 1   
    23     8    33 2   
    24     8    46 1   
    25     9    10 ar  
    26     9    14 ar  
    27    10    11 ar  
    28    10    47 1   
    29    11    12 ar  
    30    11    48 1   
    31    12    13 ar  
    32    12    49 1   
    33    13    14 ar  
    34    13    50 1   
    35    14    15 1   
    36    15    16 1   
    37    15    32 1   
    38    15    51 1   
    39    16    17 ar  
    40    16    23 ar  
    41    17    18 ar  
    42    17    52 1   
    43    18    19 1   
    44    18    20 ar  
    45    19    53 1   
    46    19    54 1   
    47    19    55 1   
    48    20    21 ar  
    49    20    56 1   
    50    21    22 1   
    51    21    23 ar  
    52    22    57 1   
    53    22    58 1   
    54    22    59 1   
    55    23    60 1   
    56    24    61 1   
    57    24    72 2   
    58    25    26 ar  
    59    25    31 ar  
    60    25    72 1   
    61    26    28 ar  
    62    26    71 1   
    63    27    63 1   
    64    27    64 1   
    65    27    65 1   
    66    27    71 1   
    67    28    38 1   
    68    30    34 ar  
    69    30    35 1   
    70    30    36 ar  
    71    31    66 1   
    72    32    33 1   
    73    35    67 1   
    74    35    68 1   
    75    62    72 1   
    76    69    73 1   
    77    70    73 1   
@<TRIPOS>SUBSTRUCTURE
     1 OWJ         1 TEMP              0 ****  ****    0 ROOT
