@<TRIPOS>MOLECULE
OWL
   42    45     1     0     0
SMALL
No Charge or Current Charge


@<TRIPOS>ATOM
      1 C1           3.8790    -0.0790     0.5910 ca         1 OWL       0.292000
      2 C2           1.2780     0.9750     0.1870 ca         1 OWL       0.290000
      3 C3           2.7430    -0.8350     0.9270 ca         1 OWL      -0.126250
      4 C4           3.7060     1.2200     0.0770 ca         1 OWL      -0.126250
      5 C5           2.4130     1.7440    -0.1210 ca         1 OWL      -0.136000
      6 C6           1.4500    -0.3130     0.7280 ca         1 OWL      -0.136000
      7 C7          -2.3950     1.7480     0.1060 ca         1 OWL      -0.136000
      8 C8          -2.7290    -0.8330    -0.9370 ca         1 OWL      -0.126250
      9 C9          -1.2610     0.9770    -0.2000 ca         1 OWL       0.290000
     10 C10         -3.6880     1.2260    -0.0910 ca         1 OWL      -0.126250
     11 C11         -3.8640    -0.0740    -0.6020 ca         1 OWL       0.292000
     12 C12         -1.4350    -0.3120    -0.7380 ca         1 OWL      -0.136000
     13 N1           0.0090     1.5280    -0.0070 nu         1 OWL      -0.998000
     14 C13         -6.3100    -0.5000    -0.1690 cc         1 OWL       0.679400
     15 N2          -7.4450    -1.1340    -0.5620 na         1 OWL      -0.347500
     16 N3          -6.4800     0.1800     0.9350 nd         1 OWL      -0.727000
     17 C14          6.3240    -0.5100     0.1580 cc         1 OWL       0.679400
     18 N4           7.4580    -1.1460     0.5530 na         1 OWL      -0.347500
     19 N5           6.4960     0.1670    -0.9470 nd         1 OWL      -0.727000
     20 N6           5.1460    -0.6190     0.8160 nu         1 OWL      -0.952400
     21 N7          -5.1320    -0.6120    -0.8270 nu         1 OWL      -0.952400
     22 C15         -8.4280    -0.8200     0.3570 cc         1 OWL      -0.243000
     23 C16         -7.8070    -0.0060     1.2730 cd         1 OWL       0.259900
     24 C17          8.4420    -0.8350    -0.3670 cc         1 OWL      -0.243000
     25 C18          7.8220    -0.0220    -1.2850 cd         1 OWL       0.259900
     26 H3           2.8570    -1.8320     1.3460 ha         1 OWL       0.130000
     27 H4           4.5700     1.8330    -0.1600 ha         1 OWL       0.130000
     28 H5           2.2980     2.7480    -0.5200 ha         1 OWL       0.117750
     29 H6           0.5870    -0.9070     1.0140 ha         1 OWL       0.117750
     30 H7          -2.2780     2.7530     0.5030 ha         1 OWL       0.117750
     31 H8          -2.8450    -1.8300    -1.3530 ha         1 OWL       0.130000
     32 H10         -4.5520     1.8410     0.1450 ha         1 OWL       0.130000
     33 H12         -0.5740    -0.9080    -1.0240 ha         1 OWL       0.117750
     34 HN1          0.0100     2.5500    -0.0080 hn         1 OWL       0.493000
     35 HN6          5.1630    -1.3890     1.4780 hn         1 OWL       0.489000
     36 HN7         -5.1500    -1.3840    -1.4860 hn         1 OWL       0.489000
     37 H15         -9.4500    -1.1790     0.3010 h4         1 OWL       0.157000
     38 H16         -8.2410     0.4510     2.1550 h4         1 OWL       0.037100
     39 H17          9.4630    -1.1960    -0.3100 h4         1 OWL       0.157000
     40 H18          8.2570     0.4330    -2.1680 h4         1 OWL       0.037100
     41 HN2         -7.5340    -1.7150    -1.3850 hn         1 OWL       0.346500
     42 HN4          7.5460    -1.7250     1.3770 hn         1 OWL       0.346500
@<TRIPOS>BOND
     1     1     3 ar  
     2     1     4 ar  
     3     1    20 1   
     4     2     5 ar  
     5     2     6 ar  
     6     2    13 1   
     7     3     6 ar  
     8     3    26 1   
     9     4     5 ar  
    10     4    27 1   
    11     5    28 1   
    12     6    29 1   
    13     7     9 ar  
    14     7    10 ar  
    15     7    30 1   
    16     8    11 ar  
    17     8    12 ar  
    18     8    31 1   
    19     9    12 ar  
    20     9    13 1   
    21    10    11 ar  
    22    10    32 1   
    23    11    21 1   
    24    12    33 1   
    25    13    34 1   
    26    14    15 1   
    27    14    16 2   
    28    14    21 1   
    29    15    22 1   
    30    15    41 1   
    31    16    23 1   
    32    17    18 1   
    33    17    19 2   
    34    17    20 1   
    35    18    24 1   
    36    18    42 1   
    37    19    25 1   
    38    20    35 1   
    39    21    36 1   
    40    22    23 2   
    41    22    37 1   
    42    23    38 1   
    43    24    25 2   
    44    24    39 1   
    45    25    40 1   
@<TRIPOS>SUBSTRUCTURE
     1 OWL         1 TEMP              0 ****  ****    0 ROOT
