@<TRIPOS>MOLECULE
OWL
   42    45     1     0     0
SMALL
bcc


@<TRIPOS>ATOM
      1 C1           3.8400    -0.2860     0.2920 ca         1 OWL       0.153600
      2 C2           1.2510     0.8460     0.1160 ca         1 OWL       0.151600
      3 C3           2.7130    -0.9710     0.7550 ca         1 OWL      -0.144250
      4 C4           3.6520     0.9840    -0.2560 ca         1 OWL      -0.144250
      5 C5           2.3780     1.5250    -0.3480 ca         1 OWL      -0.154000
      6 C6           1.4480    -0.4180     0.6800 ca         1 OWL      -0.154000
      7 C7          -2.3720     1.5420     0.3580 ca         1 OWL      -0.154000
      8 C8          -2.6850    -0.9680    -0.7170 ca         1 OWL      -0.144250
      9 C9          -1.2340     0.8500    -0.0580 ca         1 OWL       0.151600
     10 C10         -3.6450     1.0060     0.2340 ca         1 OWL      -0.144250
     11 C11         -3.8230    -0.2720    -0.2990 ca         1 OWL       0.153600
     12 C12         -1.4200    -0.4200    -0.6110 ca         1 OWL      -0.154000
     13 N1           0.0080     1.4590     0.0520 nu         1 OWL      -0.666000
     14 C13         -6.2890    -0.4450    -0.0760 cc         1 OWL       0.679400
     15 N2          -7.3990    -1.1720    -0.3430 na         1 OWL      -0.347900
     16 N3          -6.5820     0.6640     0.5590 nd         1 OWL      -0.727000
     17 C14          6.3020    -0.4610     0.0280 cc         1 OWL       0.679400
     18 N4           7.4170    -1.1800     0.2950 na         1 OWL      -0.347900
     19 N5           6.5850     0.6430    -0.6200 nd         1 OWL      -0.727000
     20 N6           5.0740    -0.9120     0.4190 nu         1 OWL      -0.758800
     21 N7          -5.0570    -0.8930    -0.4560 nu         1 OWL      -0.758800
     22 C15         -8.4770    -0.4760     0.1560 cc         1 OWL      -0.275600
     23 C16         -7.9500     0.6480     0.7040 cd         1 OWL       0.325200
     24 C17          8.4880    -0.4860    -0.2220 cc         1 OWL      -0.275600
     25 C18          7.9520     0.6300    -0.7770 cd         1 OWL       0.325200
     26 H3           2.8260    -1.9530     1.2010 ha         1 OWL       0.148000
     27 H4           4.4960     1.5460    -0.6250 ha         1 OWL       0.148000
     28 H5           2.2620     2.5070    -0.7920 ha         1 OWL       0.135750
     29 H6           0.6140    -0.9770     1.0830 ha         1 OWL       0.135750
     30 H7          -2.2640     2.5300     0.7900 ha         1 OWL       0.135750
     31 H8          -2.7890    -1.9570    -1.1510 ha         1 OWL       0.148000
     32 H10         -4.4980     1.5770     0.5680 ha         1 OWL       0.148000
     33 H12         -0.5770    -0.9900    -0.9770 ha         1 OWL       0.135750
     34 HN1          0.0130     2.4650     0.0090 hn         1 OWL       0.437800
     35 HN6          5.0610    -1.8080     0.8800 hn         1 OWL       0.433800
     36 HN7         -5.0350    -1.7980    -0.8990 hn         1 OWL       0.433800
     37 H15         -9.4840    -0.8450     0.0730 h4         1 OWL       0.175000
     38 H16         -8.4700     1.4520     1.2000 h4         1 OWL       0.037100
     39 H17          9.4980    -0.8490    -0.1410 h4         1 OWL       0.175000
     40 H18          8.4650     1.4320    -1.2840 h4         1 OWL       0.037100
     41 HN2         -7.4420    -2.0530    -0.8310 hn         1 OWL       0.296200
     42 HN4          7.4680    -2.0560     0.7890 hn         1 OWL       0.296200
@<TRIPOS>BOND
     1     1     3 ar  
     2     1     4 ar  
     3     1    20 1   
     4     2     5 ar  
     5     2     6 ar  
     6     2    13 1   
     7     3     6 ar  
     8     3    26 1   
     9     4     5 ar  
    10     4    27 1   
    11     5    28 1   
    12     6    29 1   
    13     7     9 ar  
    14     7    10 ar  
    15     7    30 1   
    16     8    11 ar  
    17     8    12 ar  
    18     8    31 1   
    19     9    12 ar  
    20     9    13 1   
    21    10    11 ar  
    22    10    32 1   
    23    11    21 1   
    24    12    33 1   
    25    13    34 1   
    26    14    15 1   
    27    14    16 2   
    28    14    21 1   
    29    15    22 1   
    30    15    41 1   
    31    16    23 1   
    32    17    18 1   
    33    17    19 2   
    34    17    20 1   
    35    18    24 1   
    36    18    42 1   
    37    19    25 1   
    38    20    35 1   
    39    21    36 1   
    40    22    23 2   
    41    22    37 1   
    42    23    38 1   
    43    24    25 2   
    44    24    39 1   
    45    25    40 1   
@<TRIPOS>SUBSTRUCTURE
     1 OWL         1 TEMP              0 ****  ****    0 ROOT
