@<TRIPOS>MOLECULE
OWM
   72    76     1     0     0
SMALL
No Charge or Current Charge


@<TRIPOS>ATOM
      1 C02         -4.6840    29.1100    -3.4310 ca         1 OWM       0.415900
      2 C03         -4.4840    29.8670    -4.6000 ca         1 OWM      -0.310300
      3 C04         -5.1350    29.3970    -5.7590 ca         1 OWM       0.178900
      4 C06         -6.0250    27.6790    -4.5590 ca         1 OWM       0.401900
      5 C09         -3.6040    31.1210    -4.6530 c3         1 OWM       0.045200
      6 C10         -4.1530    32.1810    -5.6040 ca         1 OWM      -0.053300
      7 C11         -3.5300    32.4280    -6.8380 ca         1 OWM      -0.182000
      8 C12         -4.0430    33.3980    -7.7320 ca         1 OWM       0.118100
      9 C15         -5.2120    34.1420    -7.3650 ca         1 OWM       0.091100
     10 C16         -5.8230    33.8930    -6.1070 ca         1 OWM      -0.046800
     11 C17         -7.0400    34.6260    -5.6450 ce         1 OWM      -0.100200
     12 C18         -7.3560    35.9470    -5.8010 cf         1 OWM      -0.252200
     13 C19         -8.6030    36.5860    -5.2810 c          1 OWM       0.628300
     14 C22         -7.5260    39.9260    -5.6370 ce         1 OWM       0.405800
     15 C23         -8.4140    40.6040    -4.6480 ca         1 OWM      -0.198900
     16 C24         -9.6390    40.0050    -4.3140 ca         1 OWM      -0.034300
     17 C25        -10.0290    38.6820    -4.9940 c6         1 OWM       0.171000
     18 C29        -10.4880    40.6200    -3.3780 ca         1 OWM      -0.184000
     19 C30        -10.1270    41.8450    -2.7640 ca         1 OWM       0.142100
     20 C32        -12.2470    41.8820    -1.4690 c3         1 OWM       0.143900
     21 C33         -8.8780    42.4510    -3.1080 ca         1 OWM       0.063100
     22 C35         -9.0790    44.4590    -1.6200 c3         1 OWM       0.148900
     23 C36         -8.0420    41.8180    -4.0460 ca         1 OWM      -0.062000
     24 C38         -5.2950    32.9120    -5.2510 ca         1 OWM      -0.117000
     25 C40         -5.3730    35.4850    -9.4860 c3         1 OWM       0.148900
     26 N01         -4.1010    29.4150    -2.2460 nv         1 OWM      -1.073900
     27 N05         -5.9120    28.2970    -5.7410 nb         1 OWM      -0.275000
     28 N07         -6.8010    26.5720    -4.5340 nv         1 OWM      -1.052900
     29 N08         -5.4520    28.0170    -3.4010 nb         1 OWM      -0.328000
     30 N20         -8.8130    37.9780    -5.5010 n          1 OWM      -0.180800
     31 N21         -7.8700    38.7790    -6.1440 n2         1 OWM      -0.437300
     32 O13         -3.4160    33.6160    -8.9500 os         1 OWM      -0.326100
     33 O34         -8.3920    43.6470    -2.5890 os         1 OWM      -0.344100
     34 O37         -9.4280    35.9100    -4.6740 o          1 OWM      -0.602100
     35 O39         -5.8260    35.0930    -8.1790 os         1 OWM      -0.347100
     36 C26        -11.0690    38.8880    -6.1100 cx         1 OWM      -0.149700
     37 C27        -11.9630    37.7480    -6.5430 cx         1 OWM      -0.121900
     38 C28        -12.5470    38.9200    -5.7890 cx         1 OWM      -0.121900
     39 H1          -5.0360    29.9010    -6.7200 h4         1 OWM       0.024100
     40 H2          -2.5860    30.8370    -4.9470 hc         1 OWM       0.045200
     41 H3          -3.5060    31.5750    -3.6600 hc         1 OWM       0.045200
     42 H4          -2.6490    31.8460    -7.0890 ha         1 OWM       0.120000
     43 H5          -1.9310    33.2380   -10.3690 h1         1 OWM       0.041367
     44 H6          -1.4110    33.0620    -8.6810 h1         1 OWM       0.041367
     45 H7          -2.4480    31.8200    -9.4360 h1         1 OWM       0.041367
     46 H8          -7.7350    34.0010    -5.0800 ha         1 OWM       0.190000
     47 H9          -6.6600    36.5900    -6.3330 ha         1 OWM       0.225000
     48 H10         -6.6280    40.4530    -5.9640 h4         1 OWM       0.037800
     49 H11        -10.4970    38.0580    -4.2190 h1         1 OWM       0.097700
     50 H12        -11.4280    40.1310    -3.1420 ha         1 OWM       0.125000
     51 H13        -12.7420    42.5280    -0.7330 h1         1 OWM       0.044367
     52 H14        -12.9080    41.7930    -2.3400 h1         1 OWM       0.044367
     53 H15        -12.1190    40.8900    -1.0170 h1         1 OWM       0.044367
     54 H16         -8.4800    45.3450    -1.3790 h1         1 OWM       0.035700
     55 H17        -10.0450    44.8030    -2.0110 h1         1 OWM       0.035700
     56 H18         -9.2440    43.9030    -0.6880 h1         1 OWM       0.035700
     57 H19         -7.0910    42.2810    -4.3040 ha         1 OWM       0.130000
     58 H20         -5.7740    32.7180    -4.2930 ha         1 OWM       0.124000
     59 H21         -6.0400    36.2520    -9.9000 h1         1 OWM       0.038033
     60 H22         -4.3630    35.9100    -9.4410 h1         1 OWM       0.038033
     61 H23         -5.3780    34.6320   -10.1770 h1         1 OWM       0.038033
     62 H24         -4.1270    28.7120    -1.5120 hn         1 OWM       0.487500
     63 H25         -3.3100    30.0500    -2.2390 hn         1 OWM       0.487500
     64 H26         -7.0670    26.1490    -5.4200 hn         1 OWM       0.486500
     65 H27         -6.7360    25.9520    -3.7310 hn         1 OWM       0.486500
     66 H28        -10.7210    39.5600    -6.8910 hc         1 OWM       0.085700
     67 H29        -11.8790    36.8000    -6.0160 hc         1 OWM       0.074950
     68 H30        -12.1940    37.6600    -7.6020 hc         1 OWM       0.074950
     69 H31        -13.1690    39.6200    -6.3410 hc         1 OWM       0.074950
     70 H32        -12.8570    38.7530    -4.7590 hc         1 OWM       0.074950
     71 O31        -10.9760    42.4420    -1.8450 os         1 OWM      -0.322100
     72 C14         -2.2450    32.8960    -9.3750 c3         1 OWM       0.145900
@<TRIPOS>BOND
     1     1     2 ar  
     2     1    26 1   
     3     1    29 ar  
     4     2     3 ar  
     5     2     5 1   
     6     3    27 ar  
     7     3    39 1   
     8     4    27 ar  
     9     4    28 1   
    10     4    29 ar  
    11     5     6 1   
    12     5    40 1   
    13     5    41 1   
    14     6     7 ar  
    15     6    24 ar  
    16     7     8 ar  
    17     7    42 1   
    18     8     9 ar  
    19     8    32 1   
    20     9    10 ar  
    21     9    35 1   
    22    10    11 1   
    23    10    24 ar  
    24    11    12 2   
    25    11    46 1   
    26    12    13 1   
    27    12    47 1   
    28    13    30 1   
    29    13    34 2   
    30    14    15 1   
    31    14    31 2   
    32    14    48 1   
    33    15    16 ar  
    34    15    23 ar  
    35    16    17 1   
    36    16    18 ar  
    37    17    30 1   
    38    17    36 1   
    39    17    49 1   
    40    18    19 ar  
    41    18    50 1   
    42    19    21 ar  
    43    19    71 1   
    44    20    51 1   
    45    20    52 1   
    46    20    53 1   
    47    20    71 1   
    48    21    23 ar  
    49    21    33 1   
    50    22    33 1   
    51    22    54 1   
    52    22    55 1   
    53    22    56 1   
    54    23    57 1   
    55    24    58 1   
    56    25    35 1   
    57    25    59 1   
    58    25    60 1   
    59    25    61 1   
    60    26    62 1   
    61    26    63 1   
    62    28    64 1   
    63    28    65 1   
    64    30    31 1   
    65    32    72 1   
    66    36    37 1   
    67    36    38 1   
    68    36    66 1   
    69    37    38 1   
    70    37    67 1   
    71    37    68 1   
    72    38    69 1   
    73    38    70 1   
    74    43    72 1   
    75    44    72 1   
    76    45    72 1   
@<TRIPOS>SUBSTRUCTURE
     1 OWM         1 TEMP              0 ****  ****    0 ROOT
