@<TRIPOS>MOLECULE
OWM
   72    76     1     0     0
SMALL
bcc


@<TRIPOS>ATOM
      1 C02         -4.6780    28.3660    -4.3840 ca         1 OWM       0.744200
      2 C03         -4.7570    29.6380    -5.0010 ca         1 OWM      -0.440900
      3 C04         -5.5080    29.6670    -6.1520 ca         1 OWM       0.507200
      4 C06         -6.0030    27.4740    -6.0040 ca         1 OWM       0.927900
      5 C09         -4.0660    30.8330    -4.3970 c3         1 OWM       0.045200
      6 C10         -4.3050    32.1140    -5.1450 ca         1 OWM      -0.053300
      7 C11         -3.4570    32.4840    -6.1860 ca         1 OWM      -0.200000
      8 C12         -3.6930    33.6480    -6.9080 ca         1 OWM       0.118100
      9 C15         -4.7910    34.4620    -6.5860 ca         1 OWM       0.091100
     10 C16         -5.6460    34.1040    -5.5420 ca         1 OWM      -0.046800
     11 C17         -6.8010    34.8780    -5.0960 ce         1 OWM      -0.050200
     12 C18         -7.1770    36.1240    -5.4150 cf         1 OWM      -0.202200
     13 C19         -8.3870    36.6840    -4.7750 c          1 OWM       0.695300
     14 C22         -7.8940    39.9640    -5.8430 ce         1 OWM       0.405800
     15 C23         -8.6600    40.7300    -4.8830 ca         1 OWM      -0.198900
     16 C24         -9.5890    40.0450    -4.1120 ca         1 OWM      -0.034300
     17 C25         -9.8800    38.6190    -4.4880 c6         1 OWM       0.171000
     18 C29        -10.2780    40.6940    -3.1000 ca         1 OWM      -0.202000
     19 C30        -10.0550    42.0480    -2.8630 ca         1 OWM       0.142100
     20 C32        -11.6090    42.1170    -1.0770 c3         1 OWM       0.120700
     21 C33         -9.1210    42.7460    -3.6550 ca         1 OWM       0.063100
     22 C35         -9.7350    44.9520    -4.1160 c3         1 OWM       0.125700
     23 C36         -8.4360    42.0880    -4.6540 ca         1 OWM      -0.080000
     24 C38         -5.3840    32.9200    -4.8360 ca         1 OWM      -0.135000
     25 C40         -5.7400    35.4190    -8.4960 c3         1 OWM       0.125700
     26 N01         -3.9940    28.1910    -3.2360 nv         1 OWM      -0.963500
     27 N05         -6.1370    28.6150    -6.6770 nb         1 OWM      -0.801000
     28 N07         -6.6710    26.3920    -6.4740 nv         1 OWM      -0.942500
     29 N08         -5.2970    27.3030    -4.8860 nb         1 OWM      -0.854000
     30 N20         -8.6560    38.0090    -5.0130 n          1 OWM      -0.247800
     31 N21         -7.8590    38.6880    -5.8810 n2         1 OWM      -0.437300
     32 O13         -2.9260    34.0820    -7.9210 os         1 OWM      -0.302900
     33 O34         -8.8870    44.0610    -3.4020 os         1 OWM      -0.320900
     34 O37         -9.1120    36.0290    -4.0400 o          1 OWM      -0.602100
     35 O39         -4.9840    35.5980    -7.3010 os         1 OWM      -0.323900
     36 C26        -10.9950    38.5690    -5.5100 cx         1 OWM      -0.149700
     37 C27        -11.8650    37.3550    -5.6210 cx         1 OWM      -0.121900
     38 C28        -12.4120    38.6200    -5.0290 cx         1 OWM      -0.121900
     39 H1          -5.6210    30.5990    -6.6960 h4         1 OWM       0.024100
     40 H2          -2.9870    30.6480    -4.3420 hc         1 OWM       0.045200
     41 H3          -4.4000    30.9600    -3.3610 hc         1 OWM       0.045200
     42 H4          -2.6150    31.8460    -6.4230 ha         1 OWM       0.138000
     43 H5          -1.3190    33.8440    -9.1080 h1         1 OWM       0.041367
     44 H6          -1.0850    33.2130    -7.4680 h1         1 OWM       0.041367
     45 H7          -2.0790    32.3150    -8.6360 h1         1 OWM       0.041367
     46 H8          -7.4170    34.3490    -4.3760 ha         1 OWM       0.140000
     47 H9          -6.6220    36.7440    -6.0950 ha         1 OWM       0.175000
     48 H10         -7.2440    40.4740    -6.5450 h4         1 OWM       0.037800
     49 H11        -10.1750    38.0530    -3.6040 h1         1 OWM       0.097700
     50 H12        -10.9930    40.1350    -2.5090 ha         1 OWM       0.143000
     51 H13        -11.9710    42.8700    -0.3830 h1         1 OWM       0.044367
     52 H14        -12.4550    41.7250    -1.6470 h1         1 OWM       0.044367
     53 H15        -11.1530    41.3020    -0.5100 h1         1 OWM       0.044367
     54 H16         -9.4570    45.9630    -3.8240 h1         1 OWM       0.035700
     55 H17         -9.6030    44.8470    -5.1960 h1         1 OWM       0.035700
     56 H18        -10.7890    44.7950    -3.8740 h1         1 OWM       0.035700
     57 H19         -7.7060    42.6310    -5.2430 ha         1 OWM       0.148000
     58 H20         -6.0480    32.6370    -4.0270 ha         1 OWM       0.142000
     59 H21         -5.8590    36.4020    -8.9480 h1         1 OWM       0.038033
     60 H22         -5.2260    34.7650    -9.2040 h1         1 OWM       0.038033
     61 H23         -6.7290    35.0060    -8.2840 h1         1 OWM       0.038033
     62 H24         -3.8480    27.2520    -2.9060 hn         1 OWM       0.432300
     63 H25         -3.3290    28.8770    -2.9260 hn         1 OWM       0.432300
     64 H26         -7.0060    26.4250    -7.4210 hn         1 OWM       0.431300
     65 H27         -6.3990    25.4870    -6.1320 hn         1 OWM       0.431300
     66 H28        -10.7830    39.1000    -6.4330 hc         1 OWM       0.085700
     67 H29        -11.6670    36.5300    -4.9500 hc         1 OWM       0.074950
     68 H30        -12.2000    37.0620    -6.6070 hc         1 OWM       0.074950
     69 H31        -13.1240    39.1990    -5.6010 hc         1 OWM       0.074950
     70 H32        -12.5790    38.6430    -3.9590 hc         1 OWM       0.074950
     71 O31        -10.6680    42.7640    -1.9140 os         1 OWM      -0.298900
     72 C14         -1.7980    33.3130    -8.2900 c3         1 OWM       0.122700
@<TRIPOS>BOND
     1     1     2 ar  
     2     1    26 1   
     3     1    29 ar  
     4     2     3 ar  
     5     2     5 1   
     6     3    27 ar  
     7     3    39 1   
     8     4    27 ar  
     9     4    28 1   
    10     4    29 ar  
    11     5     6 1   
    12     5    40 1   
    13     5    41 1   
    14     6     7 ar  
    15     6    24 ar  
    16     7     8 ar  
    17     7    42 1   
    18     8     9 ar  
    19     8    32 1   
    20     9    10 ar  
    21     9    35 1   
    22    10    11 1   
    23    10    24 ar  
    24    11    12 2   
    25    11    46 1   
    26    12    13 1   
    27    12    47 1   
    28    13    30 1   
    29    13    34 2   
    30    14    15 1   
    31    14    31 2   
    32    14    48 1   
    33    15    16 ar  
    34    15    23 ar  
    35    16    17 1   
    36    16    18 ar  
    37    17    30 1   
    38    17    36 1   
    39    17    49 1   
    40    18    19 ar  
    41    18    50 1   
    42    19    21 ar  
    43    19    71 1   
    44    20    51 1   
    45    20    52 1   
    46    20    53 1   
    47    20    71 1   
    48    21    23 ar  
    49    21    33 1   
    50    22    33 1   
    51    22    54 1   
    52    22    55 1   
    53    22    56 1   
    54    23    57 1   
    55    24    58 1   
    56    25    35 1   
    57    25    59 1   
    58    25    60 1   
    59    25    61 1   
    60    26    62 1   
    61    26    63 1   
    62    28    64 1   
    63    28    65 1   
    64    30    31 1   
    65    32    72 1   
    66    36    37 1   
    67    36    38 1   
    68    36    66 1   
    69    37    38 1   
    70    37    67 1   
    71    37    68 1   
    72    38    69 1   
    73    38    70 1   
    74    43    72 1   
    75    44    72 1   
    76    45    72 1   
@<TRIPOS>SUBSTRUCTURE
     1 OWM         1 TEMP              0 ****  ****    0 ROOT
