@<TRIPOS>MOLECULE
OWN
   42    44     1     0     0
SMALL
No Charge or Current Charge


@<TRIPOS>ATOM
      1 N1          -2.9290    -4.5230   -25.2470 n          1 OWN      -0.228400
      2 C2           0.6250    -4.7640   -27.6180 ca         1 OWN      -0.111600
      3 O2          -5.1440    -3.9340   -24.9880 o          1 OWN      -0.593100
      4 C4          -0.8800    -5.7250   -25.9130 ca         1 OWN       0.312000
      5 C6          -1.2640    -9.2770   -24.3890 cx         1 OWN      -0.146700
      6 C7          -0.5010   -10.5140   -23.9710 cx         1 OWN      -0.127900
      7 C8          -1.0620    -9.5840   -22.9210 cx         1 OWN      -0.127900
      8 C            1.8700    -4.8420   -28.4790 c          1 OWN       0.605700
      9 C1           3.8100    -6.1560   -29.0620 c3         1 OWN       0.153900
     10 C10         -2.8220    -5.1480   -23.9120 c6         1 OWN       0.079000
     11 C11         -4.1980    -4.1230   -25.7450 c          1 OWN       0.617300
     12 C12         -4.3650    -3.8930   -27.2170 ce         1 OWN      -0.292200
     13 C13         -5.2960    -3.0710   -27.7620 c2         1 OWN      -0.238000
     14 C14         -1.6910    -4.5580   -25.9880 ca         1 OWN      -0.080000
     15 C15         -1.3760    -3.5510   -26.9240 ca         1 OWN      -0.108000
     16 C16         -0.2250    -3.6450   -27.7180 ca         1 OWN      -0.091000
     17 C3           0.2830    -5.7960   -26.7130 ca         1 OWN      -0.130000
     18 C9          -2.3740    -6.6200   -24.0590 c6         1 OWN       0.213800
     19 N           -1.2320    -6.7920   -25.0200 nh         1 OWN      -0.833400
     20 O            2.1870    -3.9620   -29.2710 o          1 OWN      -0.490000
     21 O1           2.6070    -5.9860   -28.2900 os         1 OWN      -0.442100
     22 H1          -0.4070    -8.4030   -26.1220 h1         1 OWN       0.045200
     23 H2           0.4570    -8.0110   -24.6300 h1         1 OWN       0.045200
     24 H3          -2.2560    -9.4460   -24.8010 hc         1 OWN       0.089700
     25 H4          -0.9850   -11.4780   -24.1060 hc         1 OWN       0.072700
     26 H5           0.5780   -10.5240   -24.1130 hc         1 OWN       0.072700
     27 H6          -0.3610    -8.9680   -22.3630 hc         1 OWN       0.072700
     28 H7          -1.9250    -9.9210   -22.3520 hc         1 OWN       0.072700
     29 H8           4.2930    -7.1080   -28.8100 h1         1 OWN       0.048367
     30 H9           3.5880    -6.1610   -30.1380 h1         1 OWN       0.048367
     31 H10          4.5240    -5.3480   -28.8580 h1         1 OWN       0.048367
     32 H11         -2.0710    -4.6000   -23.3260 h1         1 OWN       0.072700
     33 H12         -3.7690    -5.1050   -23.3580 h1         1 OWN       0.072700
     34 H13         -3.6360    -4.3830   -27.8580 ha         1 OWN       0.194000
     35 H15         -5.3590    -2.9090   -28.8390 ha         1 OWN       0.175000
     36 H16         -6.0240    -2.5350   -27.1490 ha         1 OWN       0.175000
     37 H18         -2.0060    -2.6690   -27.0150 ha         1 OWN       0.126000
     38 H19          0.0050    -2.8400   -28.4140 ha         1 OWN       0.139000
     39 H20          0.9310    -6.6610   -26.6350 ha         1 OWN       0.131000
     40 H21         -3.2370    -7.2070   -24.4070 h1         1 OWN       0.048700
     41 H22         -2.1020    -6.9930   -23.0600 h1         1 OWN       0.048700
     42 C5          -0.5450    -8.1120   -25.0720 c3         1 OWN       0.258800
@<TRIPOS>BOND
     1     1    10 1   
     2     1    11 1   
     3     1    14 1   
     4     2     8 1   
     5     2    16 ar  
     6     2    17 ar  
     7     3    11 2   
     8     4    14 ar  
     9     4    17 ar  
    10     4    19 1   
    11     5     6 1   
    12     5     7 1   
    13     5    24 1   
    14     5    42 1   
    15     6     7 1   
    16     6    25 1   
    17     6    26 1   
    18     7    27 1   
    19     7    28 1   
    20     8    20 2   
    21     8    21 1   
    22     9    21 1   
    23     9    29 1   
    24     9    30 1   
    25     9    31 1   
    26    10    18 1   
    27    10    32 1   
    28    10    33 1   
    29    11    12 1   
    30    12    13 2   
    31    12    34 1   
    32    13    35 1   
    33    13    36 1   
    34    14    15 ar  
    35    15    16 ar  
    36    15    37 1   
    37    16    38 1   
    38    17    39 1   
    39    18    19 1   
    40    18    40 1   
    41    18    41 1   
    42    19    42 1   
    43    22    42 1   
    44    23    42 1   
@<TRIPOS>SUBSTRUCTURE
     1 OWN         1 TEMP              0 ****  ****    0 ROOT
