@<TRIPOS>MOLECULE
OWN
   42    44     1     0     0
SMALL
bcc


@<TRIPOS>ATOM
      1 N1          -2.8120    -4.5630   -25.2790 n          1 OWN      -0.388000
      2 C2           0.6200    -4.8080   -27.6380 ca         1 OWN      -0.111600
      3 O2          -4.9400    -3.9750   -24.8150 o          1 OWN      -0.593100
      4 C4          -0.8390    -5.7520   -25.9340 ca         1 OWN       0.173600
      5 C6          -1.3470    -9.1530   -24.6290 cx         1 OWN      -0.146700
      6 C7          -0.7010   -10.4090   -24.1310 cx         1 OWN      -0.127900
      7 C8          -1.5480    -9.5870   -23.2090 cx         1 OWN      -0.127900
      8 C            1.8460    -4.8650   -28.4740 c          1 OWN       0.654700
      9 C1           3.7860    -6.0930   -28.9920 c3         1 OWN       0.130700
     10 C10         -2.5110    -4.9950   -23.9240 c6         1 OWN       0.079000
     11 C11         -4.0720    -4.1920   -25.6460 c          1 OWN       0.684300
     12 C12         -4.3540    -4.1190   -27.1030 ce         1 OWN      -0.242200
     13 C13         -5.4170    -3.4680   -27.5630 c2         1 OWN      -0.138000
     14 C14         -1.6910    -4.6390   -26.1190 ca         1 OWN       0.012600
     15 C15         -1.3610    -3.6290   -27.0080 ca         1 OWN      -0.126000
     16 C16         -0.2280    -3.7170   -27.7960 ca         1 OWN      -0.109000
     17 C3           0.3300    -5.7980   -26.7020 ca         1 OWN      -0.148000
     18 C9          -2.1230    -6.4590   -23.9640 c6         1 OWN       0.213800
     19 N           -1.1900    -6.7320   -25.0440 nh         1 OWN      -0.695000
     20 O            2.1430    -4.0220   -29.2870 o          1 OWN      -0.539000
     21 O1           2.5840    -5.9390   -28.2390 os         1 OWN      -0.418900
     22 H1          -0.0070    -8.1810   -25.9390 h1         1 OWN       0.045200
     23 H2           0.3590    -7.9210   -24.2370 h1         1 OWN       0.045200
     24 H3          -2.1910    -9.2800   -25.3000 hc         1 OWN       0.089700
     25 H4          -1.0870   -11.3560   -24.4840 hc         1 OWN       0.072700
     26 H5           0.3720   -10.3980   -23.9780 hc         1 OWN       0.072700
     27 H6          -1.0440    -9.0250   -22.4310 hc         1 OWN       0.072700
     28 H7          -2.5200    -9.9680   -22.9240 hc         1 OWN       0.072700
     29 H8           4.2440    -7.0110   -28.6360 h1         1 OWN       0.048367
     30 H9           3.5770    -6.1840   -30.0580 h1         1 OWN       0.048367
     31 H10          4.4690    -5.2600   -28.8290 h1         1 OWN       0.048367
     32 H11         -1.6980    -4.3830   -23.5280 h1         1 OWN       0.072700
     33 H12         -3.3770    -4.8590   -23.2840 h1         1 OWN       0.072700
     34 H13         -3.6940    -4.6360   -27.7880 ha         1 OWN       0.144000
     35 H15         -5.6400    -3.4450   -28.6200 ha         1 OWN       0.125000
     36 H16         -6.0920    -2.9340   -26.9070 ha         1 OWN       0.125000
     37 H18         -2.0060    -2.7630   -27.0850 ha         1 OWN       0.144000
     38 H19          0.0020    -2.9330   -28.5030 ha         1 OWN       0.157000
     39 H20          1.0260    -6.6120   -26.5660 ha         1 OWN       0.149000
     40 H21         -3.0210    -7.0730   -24.0700 h1         1 OWN       0.048700
     41 H22         -1.6670    -6.7240   -23.0050 h1         1 OWN       0.048700
     42 C5          -0.4610    -7.9820   -24.9670 c3         1 OWN       0.258800
@<TRIPOS>BOND
     1     1    10 1   
     2     1    11 1   
     3     1    14 1   
     4     2     8 1   
     5     2    16 ar  
     6     2    17 ar  
     7     3    11 2   
     8     4    14 ar  
     9     4    17 ar  
    10     4    19 1   
    11     5     6 1   
    12     5     7 1   
    13     5    24 1   
    14     5    42 1   
    15     6     7 1   
    16     6    25 1   
    17     6    26 1   
    18     7    27 1   
    19     7    28 1   
    20     8    20 2   
    21     8    21 1   
    22     9    21 1   
    23     9    29 1   
    24     9    30 1   
    25     9    31 1   
    26    10    18 1   
    27    10    32 1   
    28    10    33 1   
    29    11    12 1   
    30    12    13 2   
    31    12    34 1   
    32    13    35 1   
    33    13    36 1   
    34    14    15 ar  
    35    15    16 ar  
    36    15    37 1   
    37    16    38 1   
    38    17    39 1   
    39    18    19 1   
    40    18    40 1   
    41    18    41 1   
    42    19    42 1   
    43    22    42 1   
    44    23    42 1   
@<TRIPOS>SUBSTRUCTURE
     1 OWN         1 TEMP              0 ****  ****    0 ROOT
