@<TRIPOS>MOLECULE
OWO
   40    43     1     0     0
SMALL
abcg2


@<TRIPOS>ATOM
      1 C10        -20.7620    -6.0590    77.8400 ca         1 OWO      -0.107200
      2 C17        -22.5110    -4.8550    78.8300 ca         1 OWO      -0.145000
      3 C20        -23.7390    -6.9020    72.6550 cc         1 OWO       0.294300
      4 C21        -23.6550    -5.4170    72.7820 c3         1 OWO      -0.123400
      5 C24        -23.8340    -9.7740    70.6160 c3         1 OWO       0.072900
      6 C02        -23.9430    -9.0920    73.0270 cd         1 OWO      -0.107300
      7 C03        -23.8860    -7.8670    73.6840 cc         1 OWO      -0.177000
      8 C04        -24.0130    -7.6410    75.1290 ca         1 OWO      -0.014000
      9 C05        -25.1000    -8.1410    75.8540 ca         1 OWO      -0.082000
     10 C06        -25.2250    -7.9090    77.2180 ca         1 OWO      -0.123000
     11 C07        -24.2670    -7.1630    77.8890 ca         1 OWO      -0.077000
     12 C08        -23.1550    -6.6520    77.2110 cp         1 OWO      -0.077000
     13 C09        -22.1390    -5.8620    77.9360 cp         1 OWO       0.009000
     14 C12        -18.6710    -6.6610    77.4950 cc         1 OWO       0.429700
     15 C14        -19.8620    -5.2830    78.6120 ca         1 OWO       0.462000
     16 C16        -21.5540    -4.1300    79.5460 ca         1 OWO       0.318900
     17 C18        -23.0660    -6.9150    75.8470 ca         1 OWO       0.171000
     18 F19        -21.9900    -6.4310    75.1750 f          1 OWO      -0.180000
     19 N11        -19.9590    -6.9330    77.1460 na         1 OWO      -0.310600
     20 N13        -18.5620    -5.6850    78.3660 nd         1 OWO      -0.636700
     21 N15        -20.2370    -4.3240    79.4580 nb         1 OWO      -0.597000
     22 N22        -23.7120    -7.4920    71.4620 nd         1 OWO      -0.522800
     23 N23        -23.8290    -8.8210    71.7070 na         1 OWO       0.119800
     24 H171       -23.5580    -4.6200    78.9650 ha         1 OWO       0.124000
     25 H211       -23.8980    -4.9430    71.8310 hc         1 OWO       0.053033
     26 H213       -24.3510    -5.0530    73.5410 hc         1 OWO       0.053033
     27 H212       -22.6540    -5.0980    73.0790 hc         1 OWO       0.053033
     28 H241       -23.7250    -9.2170    69.6890 h1         1 OWO       0.057700
     29 H242       -23.0040   -10.4760    70.7160 h1         1 OWO       0.057700
     30 H243       -24.7710   -10.3310    70.5970 h1         1 OWO       0.057700
     31 H013       -23.2900   -11.1260    73.1550 hc         1 OWO       0.053367
     32 H011       -24.0120   -10.4800    74.6350 hc         1 OWO       0.053367
     33 H012       -25.0370   -10.9190    73.2650 hc         1 OWO       0.053367
     34 H051       -25.8590    -8.7050    75.3270 ha         1 OWO       0.121000
     35 H061       -26.0750    -8.3050    77.7570 ha         1 OWO       0.122000
     36 H071       -24.3610    -6.9820    78.9510 ha         1 OWO       0.124000
     37 H121       -17.8480    -7.2160    77.0720 h5         1 OWO       0.066800
     38 H161       -21.8830    -3.3500    80.2250 h4         1 OWO       0.024100
     39 H111       -20.2500    -7.6350    76.4830 hn         1 OWO       0.367000
     40 C01        -24.0780   -10.4790    73.5480 c3         1 OWO      -0.035800
@<TRIPOS>BOND
     1     1    13 ar  
     2     1    15 ar  
     3     1    19 1   
     4     2    13 ar  
     5     2    16 ar  
     6     2    24 1   
     7     3     4 1   
     8     3     7 1   
     9     3    22 2   
    10     4    25 1   
    11     4    26 1   
    12     4    27 1   
    13     5    23 1   
    14     5    28 1   
    15     5    29 1   
    16     5    30 1   
    17     6     7 2   
    18     6    23 1   
    19     6    40 1   
    20     7     8 1   
    21     8     9 ar  
    22     8    17 ar  
    23     9    10 ar  
    24     9    34 1   
    25    10    11 ar  
    26    10    35 1   
    27    11    12 ar  
    28    11    36 1   
    29    12    13 1   
    30    12    17 ar  
    31    14    19 1   
    32    14    20 2   
    33    14    37 1   
    34    15    20 1   
    35    15    21 ar  
    36    16    21 ar  
    37    16    38 1   
    38    17    18 1   
    39    19    39 1   
    40    22    23 1   
    41    31    40 1   
    42    32    40 1   
    43    33    40 1   
@<TRIPOS>SUBSTRUCTURE
     1 OWO         1 TEMP              0 ****  ****    0 ROOT
