@<TRIPOS>MOLECULE
OWO
   40    43     1     0     0
SMALL
No Charge or Current Charge


@<TRIPOS>ATOM
      1 C10        -20.7620    -5.9970    77.9300 ca         1 OWO      -0.107200
      2 C17        -22.5590    -4.7620    78.7960 ca         1 OWO      -0.145000
      3 C20        -23.6740    -6.8730    72.5790 cc         1 OWO       0.294300
      4 C21        -23.5540    -5.3840    72.7560 c3         1 OWO      -0.123400
      5 C24        -23.8180    -9.7690    70.5820 c3         1 OWO       0.072900
      6 C02        -24.0290    -9.0230    73.0320 cd         1 OWO      -0.107300
      7 C03        -23.9760    -7.7850    73.6180 cc         1 OWO      -0.177000
      8 C04        -24.0060    -7.6240    75.0850 ca         1 OWO      -0.014000
      9 C05        -25.0070    -8.2860    75.8280 ca         1 OWO      -0.082000
     10 C06        -25.0920    -8.1320    77.2200 ca         1 OWO      -0.123000
     11 C07        -24.1700    -7.3210    77.8960 ca         1 OWO      -0.077000
     12 C08        -23.1360    -6.6630    77.1940 cp         1 OWO      -0.077000
     13 C09        -22.1570    -5.8230    77.9460 cp         1 OWO       0.009000
     14 C12        -18.7580    -6.7740    77.5390 cc         1 OWO       0.429700
     15 C14        -19.8640    -5.2520    78.6320 ca         1 OWO       0.462000
     16 C16        -21.5860    -4.0030    79.4960 ca         1 OWO       0.318900
     17 C18        -23.0730    -6.8160    75.7830 ca         1 OWO       0.171000
     18 F19        -22.0650    -6.2200    75.1060 f          1 OWO      -0.180000
     19 N11        -20.1050    -6.9690    77.2470 na         1 OWO      -0.310600
     20 N13        -18.5810    -5.7300    78.3850 nd         1 OWO      -0.636700
     21 N15        -20.2480    -4.2370    79.4210 nb         1 OWO      -0.597000
     22 N22        -23.6040    -7.4340    71.3900 nd         1 OWO      -0.522800
     23 N23        -23.8290    -8.7730    71.6660 na         1 OWO       0.119800
     24 H171       -23.6110    -4.5190    78.9090 ha         1 OWO       0.124000
     25 H211       -24.0320    -4.8550    71.9230 hc         1 OWO       0.053033
     26 H213       -24.0410    -5.0500    73.6790 hc         1 OWO       0.053033
     27 H212       -22.5020    -5.0770    72.7850 hc         1 OWO       0.053033
     28 H241       -23.8450    -9.2660    69.6090 h1         1 OWO       0.057700
     29 H242       -22.9070   -10.3740    70.6520 h1         1 OWO       0.057700
     30 H243       -24.6960   -10.4200    70.6750 h1         1 OWO       0.057700
     31 H013       -23.6610   -11.1640    73.0230 hc         1 OWO       0.053367
     32 H011       -23.7370   -10.4580    74.6340 hc         1 OWO       0.053367
     33 H012       -25.2270   -10.6970    73.7010 hc         1 OWO       0.053367
     34 H051       -25.7500    -8.8960    75.3200 ha         1 OWO       0.121000
     35 H061       -25.8800    -8.6370    77.7750 ha         1 OWO       0.122000
     36 H071       -24.2450    -7.2120    78.9760 ha         1 OWO       0.124000
     37 H121       -17.9790    -7.4020    77.1220 h5         1 OWO       0.066800
     38 H161       -21.8940    -3.1820    80.1420 h4         1 OWO       0.024100
     39 H111       -20.4940    -7.6790    76.6400 hn         1 OWO       0.367000
     40 C01        -24.1720   -10.4070    73.6290 c3         1 OWO      -0.035800
@<TRIPOS>BOND
     1     1    13 ar  
     2     1    15 ar  
     3     1    19 1   
     4     2    13 ar  
     5     2    16 ar  
     6     2    24 1   
     7     3     4 1   
     8     3     7 1   
     9     3    22 2   
    10     4    25 1   
    11     4    26 1   
    12     4    27 1   
    13     5    23 1   
    14     5    28 1   
    15     5    29 1   
    16     5    30 1   
    17     6     7 2   
    18     6    23 1   
    19     6    40 1   
    20     7     8 1   
    21     8     9 ar  
    22     8    17 ar  
    23     9    10 ar  
    24     9    34 1   
    25    10    11 ar  
    26    10    35 1   
    27    11    12 ar  
    28    11    36 1   
    29    12    13 1   
    30    12    17 ar  
    31    14    19 1   
    32    14    20 2   
    33    14    37 1   
    34    15    20 1   
    35    15    21 ar  
    36    16    21 ar  
    37    16    38 1   
    38    17    18 1   
    39    19    39 1   
    40    22    23 1   
    41    31    40 1   
    42    32    40 1   
    43    33    40 1   
@<TRIPOS>SUBSTRUCTURE
     1 OWO         1 TEMP              0 ****  ****    0 ROOT
