@<TRIPOS>MOLECULE
OWP
   72    76     1     0     0
SMALL
No Charge or Current Charge


@<TRIPOS>ATOM
      1 C02         -4.4960    29.5040    -3.5730 ca         1 OWP       0.418900
      2 C03         -4.4750    30.1790    -4.8070 ca         1 OWP      -0.312300
      3 C04         -3.5350    31.3560    -5.0970 c3         1 OWP       0.046200
      4 C05         -4.0850    32.3150    -6.1500 ca         1 OWP      -0.054300
      5 C06         -3.5530    32.3310    -7.4480 ca         1 OWP      -0.183000
      6 C07         -4.0590    33.2140    -8.4310 ca         1 OWP       0.120100
      7 C09         -2.4430    32.3450   -10.1090 c3         1 OWP       0.144900
      8 C10         -5.1320    34.1000    -8.0900 ca         1 OWP       0.087100
      9 C12         -5.3350    35.1900   -10.3490 c3         1 OWP       0.149900
     10 C13         -5.6680    34.0710    -6.7760 ca         1 OWP      -0.049800
     11 C14         -6.7890    34.9820    -6.3850 ce         1 OWP      -0.093200
     12 C15         -7.6930    34.8300    -5.3710 cf         1 OWP      -0.269200
     13 C16         -8.7800    35.8020    -5.0600 c          1 OWP       0.633300
     14 C19         -9.2520    34.6110    -1.7330 c6         1 OWP       0.189100
     15 C20        -10.7520    36.4430    -3.5790 c6         1 OWP       0.136000
     16 C21        -12.1140    35.9590    -4.1680 c3         1 OWP      -0.045100
     17 C22        -13.2440    36.9780    -4.0860 ca         1 OWP      -0.081300
     18 C24        -10.8250    36.6200    -2.0440 ca         1 OWP      -0.086300
     19 C25        -10.1430    35.7280    -1.1760 ca         1 OWP      -0.109300
     20 C26        -10.2350    35.9000     0.2190 ca         1 OWP      -0.106000
     21 C27        -10.9920    36.9520     0.7580 ca         1 OWP      -0.105000
     22 C28        -11.6490    37.8500    -0.0960 ca         1 OWP      -0.108000
     23 C29        -11.5600    37.6890    -1.4890 ca         1 OWP      -0.090000
     24 C31         -5.1360    33.1820    -5.8230 ca         1 OWP      -0.116000
     25 C32         -5.3680    29.6990    -5.7880 ca         1 OWP       0.178900
     26 C34         -6.1200    28.1220    -4.3270 ca         1 OWP       0.403900
     27 C38        -14.3250    36.7780    -3.2040 ca         1 OWP      -0.104500
     28 C39        -13.2130    38.1340    -4.8910 ca         1 OWP      -0.104500
     29 C40        -15.3590    37.7270    -3.1240 ca         1 OWP      -0.111500
     30 C41        -14.2470    39.0820    -4.8110 ca         1 OWP      -0.111500
     31 C42        -15.3200    38.8790    -3.9270 ca         1 OWP      -0.111000
     32 N01         -3.6760    29.8270    -2.5440 nv         1 OWP      -1.078900
     33 N17         -9.6580    35.5100    -3.9750 n          1 OWP      -0.299200
     34 N18         -9.5760    34.3150    -3.1410 n7         1 OWP      -0.603400
     35 N33         -6.1970    28.6650    -5.5480 nb         1 OWP      -0.276000
     36 N35         -6.9470    27.0810    -4.0810 nv         1 OWP      -1.054900
     37 N36         -5.3130    28.4770    -3.3240 nb         1 OWP      -0.331000
     38 O08         -3.5170    33.2130    -9.7080 os         1 OWP      -0.324100
     39 O11         -5.7190    35.0050    -8.9750 os         1 OWP      -0.346100
     40 O30         -8.9120    36.8230    -5.7260 o          1 OWP      -0.607100
     41 H1          -2.5580    30.9690    -5.4100 hc         1 OWP       0.044700
     42 H2          -3.3440    31.9290    -4.1820 hc         1 OWP       0.044700
     43 H3          -2.7430    31.6450    -7.6760 ha         1 OWP       0.120000
     44 H4          -2.1840    32.5230   -11.1600 h1         1 OWP       0.042033
     45 H5          -1.5460    32.5270    -9.5040 h1         1 OWP       0.042033
     46 H6          -2.7330    31.2910   -10.0060 h1         1 OWP       0.042033
     47 H7          -5.9580    35.9640   -10.8120 h1         1 OWP       0.037367
     48 H8          -4.2890    35.5140   -10.4250 h1         1 OWP       0.037367
     49 H9          -5.4710    34.2640   -10.9230 h1         1 OWP       0.037367
     50 H10         -6.8830    35.8730    -7.0100 ha         1 OWP       0.210000
     51 H11         -7.6430    33.9470    -4.7400 ha         1 OWP       0.203000
     52 H12         -9.3570    33.6990    -1.1270 h1         1 OWP       0.068200
     53 H13        -10.5440    37.4340    -4.0080 h1         1 OWP       0.102700
     54 H14        -12.4120    35.0250    -3.6760 hc         1 OWP       0.054200
     55 H15        -11.9680    35.6950    -5.2230 hc         1 OWP       0.054200
     56 H16         -9.7090    35.2210     0.8880 ha         1 OWP       0.111000
     57 H17        -11.0570    37.0790     1.8370 ha         1 OWP       0.114000
     58 H18        -12.2250    38.6740     0.3190 ha         1 OWP       0.116000
     59 H19        -12.0660    38.4010    -2.1350 ha         1 OWP       0.124000
     60 H20         -5.5320    33.1640    -4.8110 ha         1 OWP       0.123000
     61 H21         -5.4250    30.1380    -6.7830 h4         1 OWP       0.024100
     62 H22        -14.3610    35.8920    -2.5740 ha         1 OWP       0.116500
     63 H23        -12.3860    38.2990    -5.5780 ha         1 OWP       0.116500
     64 H24        -16.1890    37.5690    -2.4380 ha         1 OWP       0.113000
     65 H25        -14.2170    39.9730    -5.4330 ha         1 OWP       0.113000
     66 H26        -16.1210    39.6140    -3.8640 ha         1 OWP       0.112000
     67 H27         -3.6020    29.1680    -1.7740 hn         1 OWP       0.490500
     68 H28         -2.8580    30.3990    -2.7330 hn         1 OWP       0.490500
     69 H29         -7.4050    26.6320    -4.8700 hn         1 OWP       0.487000
     70 H30         -6.7670    26.5020    -3.2640 hn         1 OWP       0.487000
     71 H31         -8.2030    34.9360    -1.6660 h1         1 OWP       0.068200
     72 H32        -10.4660    33.8020    -3.1990 hn         1 OWP       0.420000
@<TRIPOS>BOND
     1     1     2 ar  
     2     1    32 1   
     3     1    37 ar  
     4     2     3 1   
     5     2    25 ar  
     6     3     4 1   
     7     3    41 1   
     8     3    42 1   
     9     4     5 ar  
    10     4    24 ar  
    11     5     6 ar  
    12     5    43 1   
    13     6     8 ar  
    14     6    38 1   
    15     7    38 1   
    16     7    44 1   
    17     7    45 1   
    18     7    46 1   
    19     8    10 ar  
    20     8    39 1   
    21     9    39 1   
    22     9    47 1   
    23     9    48 1   
    24     9    49 1   
    25    10    11 1   
    26    10    24 ar  
    27    11    12 2   
    28    11    50 1   
    29    12    13 1   
    30    12    51 1   
    31    13    33 1   
    32    13    40 2   
    33    14    19 1   
    34    14    34 1   
    35    14    52 1   
    36    14    71 1   
    37    15    16 1   
    38    15    18 1   
    39    15    33 1   
    40    15    53 1   
    41    16    17 1   
    42    16    54 1   
    43    16    55 1   
    44    17    27 ar  
    45    17    28 ar  
    46    18    19 ar  
    47    18    23 ar  
    48    19    20 ar  
    49    20    21 ar  
    50    20    56 1   
    51    21    22 ar  
    52    21    57 1   
    53    22    23 ar  
    54    22    58 1   
    55    23    59 1   
    56    24    60 1   
    57    25    35 ar  
    58    25    61 1   
    59    26    35 ar  
    60    26    36 1   
    61    26    37 ar  
    62    27    29 ar  
    63    27    62 1   
    64    28    30 ar  
    65    28    63 1   
    66    29    31 ar  
    67    29    64 1   
    68    30    31 ar  
    69    30    65 1   
    70    31    66 1   
    71    32    67 1   
    72    32    68 1   
    73    33    34 1   
    74    34    72 1   
    75    36    69 1   
    76    36    70 1   
@<TRIPOS>SUBSTRUCTURE
     1 OWP         1 TEMP              0 ****  ****    0 ROOT
