@<TRIPOS>MOLECULE
OWP
   72    76     1     0     0
SMALL
bcc


@<TRIPOS>ATOM
      1 C02         -4.0870    28.9630    -4.0280 ca         1 OWP       0.747200
      2 C03         -4.4080    30.0180    -4.9170 ca         1 OWP      -0.442900
      3 C04         -3.7480    31.3660    -4.7800 c3         1 OWP       0.046200
      4 C05         -4.2110    32.3740    -5.7940 ca         1 OWP      -0.054300
      5 C06         -3.5920    32.4360    -7.0440 ca         1 OWP      -0.201000
      6 C07         -4.0240    33.3430    -8.0000 ca         1 OWP       0.120100
      7 C09         -2.4130    32.6340    -9.5810 c3         1 OWP       0.121700
      8 C10         -5.0950    34.2030    -7.7030 ca         1 OWP       0.087100
      9 C12         -6.4530    34.6090    -9.5660 c3         1 OWP       0.126700
     10 C13         -5.7280    34.1420    -6.4620 ca         1 OWP      -0.049800
     11 C14         -6.8370    35.0510    -6.1800 ce         1 OWP      -0.043200
     12 C15         -7.6930    34.9300    -5.1600 cf         1 OWP      -0.219200
     13 C16         -8.7660    35.9310    -4.9730 c          1 OWP       0.700300
     14 C19         -9.3080    34.9190    -1.7490 c6         1 OWP       0.189100
     15 C20        -10.7140    36.6350    -3.6540 c6         1 OWP       0.136000
     16 C21        -12.0130    36.0480    -4.2540 c3         1 OWP      -0.045100
     17 C22        -13.1710    37.0020    -4.2170 ca         1 OWP      -0.081300
     18 C24        -10.8100    36.8920    -2.1670 ca         1 OWP      -0.086300
     19 C25        -10.1680    36.0540    -1.2570 ca         1 OWP      -0.109300
     20 C26        -10.2770    36.3070     0.1080 ca         1 OWP      -0.124000
     21 C27        -11.0160    37.3820     0.5730 ca         1 OWP      -0.123000
     22 C28        -11.6420    38.2290    -0.3340 ca         1 OWP      -0.126000
     23 C29        -11.5350    37.9840    -1.6930 ca         1 OWP      -0.108000
     24 C31         -5.2620    33.2230    -5.5120 ca         1 OWP      -0.134000
     25 C32         -5.3480    29.6960    -5.8670 ca         1 OWP       0.507200
     26 C34         -5.5660    27.5950    -5.0830 ca         1 OWP       0.929900
     27 C38        -14.2090    36.8490    -3.3040 ca         1 OWP      -0.122500
     28 C39        -13.2040    38.0890    -5.0890 ca         1 OWP      -0.122500
     29 C40        -15.2560    37.7610    -3.2570 ca         1 OWP      -0.129500
     30 C41        -14.2450    39.0050    -5.0430 ca         1 OWP      -0.129500
     31 C42        -15.2760    38.8430    -4.1250 ca         1 OWP      -0.129000
     32 N01         -3.2010    29.1390    -3.0300 nv         1 OWP      -0.968500
     33 N17         -9.6060    35.7350    -3.9210 n          1 OWP      -0.366200
     34 N18         -9.5220    34.5910    -3.1440 n7         1 OWP      -0.548200
     35 N33         -5.9400    28.5060    -5.9790 nb         1 OWP      -0.802000
     36 N35         -6.1830    26.3890    -5.1320 nv         1 OWP      -0.944500
     37 N36         -4.6640    27.7690    -4.1190 nb         1 OWP      -0.857000
     38 O08         -3.4870    33.4800    -9.2230 os         1 OWP      -0.300900
     39 O11         -5.4900    35.1020    -8.6420 os         1 OWP      -0.322900
     40 O30         -8.8970    36.9000    -5.7100 o          1 OWP      -0.607100
     41 H1          -2.6610    31.2510    -4.8610 hc         1 OWP       0.044700
     42 H2          -3.9330    31.7590    -3.7750 hc         1 OWP       0.044700
     43 H3          -2.7690    31.7620    -7.2480 ha         1 OWP       0.138000
     44 H4          -2.1390    32.8980   -10.6000 h1         1 OWP       0.042033
     45 H5          -1.5450    32.7820    -8.9330 h1         1 OWP       0.042033
     46 H6          -2.6980    31.5790    -9.5550 h1         1 OWP       0.042033
     47 H7          -6.6320    35.3970   -10.2940 h1         1 OWP       0.037367
     48 H8          -6.0950    33.7200   -10.0900 h1         1 OWP       0.037367
     49 H9          -7.3960    34.3670    -9.0680 h1         1 OWP       0.037367
     50 H10         -6.9650    35.8820    -6.8640 ha         1 OWP       0.160000
     51 H11         -7.6370    34.1080    -4.4620 ha         1 OWP       0.153000
     52 H12         -9.4920    34.0150    -1.1670 h1         1 OWP       0.068200
     53 H13        -10.4990    37.5770    -4.1580 h1         1 OWP       0.102700
     54 H14        -12.2750    35.1260    -3.7290 hc         1 OWP       0.054200
     55 H15        -11.7980    35.7760    -5.2910 hc         1 OWP       0.054200
     56 H16         -9.7730    35.6540     0.8110 ha         1 OWP       0.129000
     57 H17        -11.0960    37.5660     1.6370 ha         1 OWP       0.132000
     58 H18        -12.2050    39.0840     0.0180 ha         1 OWP       0.134000
     59 H19        -12.0130    38.6570    -2.3930 ha         1 OWP       0.142000
     60 H20         -5.7230    33.1830    -4.5330 ha         1 OWP       0.141000
     61 H21         -5.6570    30.4400    -6.5940 h4         1 OWP       0.024100
     62 H22        -14.1930    36.0130    -2.6140 ha         1 OWP       0.134500
     63 H23        -12.4070    38.2220    -5.8120 ha         1 OWP       0.134500
     64 H24        -16.0550    37.6260    -2.5390 ha         1 OWP       0.131000
     65 H25        -14.2550    39.8440    -5.7270 ha         1 OWP       0.131000
     66 H26        -16.0900    39.5560    -4.0890 ha         1 OWP       0.130000
     67 H27         -2.9080    28.3370    -2.4990 hn         1 OWP       0.435300
     68 H28         -2.5980    29.9410    -3.0040 hn         1 OWP       0.435300
     69 H29         -6.6720    26.1480    -5.9760 hn         1 OWP       0.431800
     70 H30         -5.7720    25.6270    -4.6220 hn         1 OWP       0.431800
     71 H31         -8.2530    35.1740    -1.6080 h1         1 OWP       0.068200
     72 H32        -10.3640    34.0380    -3.2630 hn         1 OWP       0.364800
@<TRIPOS>BOND
     1     1     2 ar  
     2     1    32 1   
     3     1    37 ar  
     4     2     3 1   
     5     2    25 ar  
     6     3     4 1   
     7     3    41 1   
     8     3    42 1   
     9     4     5 ar  
    10     4    24 ar  
    11     5     6 ar  
    12     5    43 1   
    13     6     8 ar  
    14     6    38 1   
    15     7    38 1   
    16     7    44 1   
    17     7    45 1   
    18     7    46 1   
    19     8    10 ar  
    20     8    39 1   
    21     9    39 1   
    22     9    47 1   
    23     9    48 1   
    24     9    49 1   
    25    10    11 1   
    26    10    24 ar  
    27    11    12 2   
    28    11    50 1   
    29    12    13 1   
    30    12    51 1   
    31    13    33 1   
    32    13    40 2   
    33    14    19 1   
    34    14    34 1   
    35    14    52 1   
    36    14    71 1   
    37    15    16 1   
    38    15    18 1   
    39    15    33 1   
    40    15    53 1   
    41    16    17 1   
    42    16    54 1   
    43    16    55 1   
    44    17    27 ar  
    45    17    28 ar  
    46    18    19 ar  
    47    18    23 ar  
    48    19    20 ar  
    49    20    21 ar  
    50    20    56 1   
    51    21    22 ar  
    52    21    57 1   
    53    22    23 ar  
    54    22    58 1   
    55    23    59 1   
    56    24    60 1   
    57    25    35 ar  
    58    25    61 1   
    59    26    35 ar  
    60    26    36 1   
    61    26    37 ar  
    62    27    29 ar  
    63    27    62 1   
    64    28    30 ar  
    65    28    63 1   
    66    29    31 ar  
    67    29    64 1   
    68    30    31 ar  
    69    30    65 1   
    70    31    66 1   
    71    32    67 1   
    72    32    68 1   
    73    33    34 1   
    74    34    72 1   
    75    36    69 1   
    76    36    70 1   
@<TRIPOS>SUBSTRUCTURE
     1 OWP         1 TEMP              0 ****  ****    0 ROOT
