@<TRIPOS>MOLECULE
OWQ
   49    53     1     0     0
SMALL
No Charge or Current Charge


@<TRIPOS>ATOM
      1 C1          25.3090     1.9980   -65.2070 ca         1 OWQ       0.409900
      2 C3          27.4370     1.3330   -65.7840 ca         1 OWQ       0.245900
      3 N6          25.4950     1.8310   -63.8760 nb         1 OWQ      -0.254000
      4 C9          26.6940     1.2160   -61.0810 ca         1 OWQ      -0.029200
      5 C10         26.6500     0.1030   -60.2180 ca         1 OWQ      -0.057500
      6 C11         25.4660     2.5290   -59.4270 ca         1 OWQ      -0.168000
      7 C12         26.1010     2.4290   -60.6780 ca         1 OWQ      -0.057500
      8 C14         25.4220     1.4110   -58.5650 ca         1 OWQ       0.149100
      9 C15         26.0160     0.2050   -58.9670 ca         1 OWQ      -0.168000
     10 C19         23.2480     3.2330   -64.7110 c5         1 OWQ       0.229500
     11 C20         22.2740     2.2270   -64.0460 c5         1 OWQ      -0.116400
     12 C21         21.1850     3.1930   -63.5120 c5         1 OWQ       0.230800
     13 C24         20.0090     5.0960   -64.7720 ca         1 OWQ       0.382000
     14 N2          26.2170     1.7640   -66.1790 nb         1 OWQ      -0.255000
     15 C4          27.7080     1.1440   -64.4190 ca         1 OWQ      -0.149600
     16 C5          26.7190     1.4040   -63.5160 ca         1 OWQ       0.153500
     17 N7          27.3170     1.1140   -62.3250 na         1 OWQ       0.053100
     18 N8          28.8740     0.7090   -63.7970 nc         1 OWQ      -0.175400
     19 N13         28.6220     0.6910   -62.4880 nd         1 OWQ      -0.154400
     20 O16         24.8140     1.4490   -57.3270 os         1 OWQ      -0.336100
     21 N17         24.0650     2.4210   -65.6770 nu         1 OWQ      -0.908100
     22 C18         24.1750     2.6350   -56.8220 c3         1 OWQ       0.146900
     23 N22         21.0760     4.1800   -64.6230 nh         1 OWQ      -0.835400
     24 C23         22.2420     4.0890   -65.5510 c5         1 OWQ       0.216800
     25 C25         19.0870     5.3070   -63.7410 ca         1 OWQ      -0.255000
     26 C26         18.0470     6.2230   -63.9290 ca         1 OWQ       0.371900
     27 N27         17.8830     6.9230   -65.0710 nb         1 OWQ      -0.702000
     28 C28         18.7730     6.7180   -66.0650 ca         1 OWQ       0.371900
     29 C29         19.8410     5.8220   -65.9570 ca         1 OWQ      -0.255000
     30 H1          28.1810     1.1420   -66.5560 h4         1 OWQ       0.044100
     31 H2          27.1040    -0.8390   -60.5180 ha         1 OWQ       0.136000
     32 H3          25.0180     3.4770   -59.1460 ha         1 OWQ       0.129000
     33 H4          26.1320     3.2960   -61.3350 ha         1 OWQ       0.136000
     34 H5          25.9840    -0.6580   -58.3060 ha         1 OWQ       0.129000
     35 H6          23.8110     3.8530   -63.9970 h1         1 OWQ       0.086700
     36 H7          21.8480     1.5220   -64.7680 hc         1 OWQ       0.069700
     37 H8          22.7390     1.6430   -63.2440 hc         1 OWQ       0.069700
     38 H9          20.2410     2.6610   -63.3250 h1         1 OWQ       0.051200
     39 H10         21.5040     3.6800   -62.5790 h1         1 OWQ       0.051200
     40 H11         24.0360     2.6080   -66.6800 hn         1 OWQ       0.514000
     41 H12         23.7570     2.4460   -55.8250 h1         1 OWQ       0.043367
     42 H13         24.8930     3.4600   -56.7380 h1         1 OWQ       0.043367
     43 H14         23.3540     2.9460   -57.4800 h1         1 OWQ       0.043367
     44 H15         22.6680     5.0720   -65.7950 h1         1 OWQ       0.052700
     45 H16         21.9520     3.5880   -66.4860 h1         1 OWQ       0.052700
     46 H17         19.1640     4.7830   -62.7960 ha         1 OWQ       0.118500
     47 H18         17.3190     6.4050   -63.1400 h4         1 OWQ       0.012100
     48 H19         18.6210     7.2920   -66.9780 h4         1 OWQ       0.012100
     49 H20         20.5160     5.7010   -66.7960 ha         1 OWQ       0.118500
@<TRIPOS>BOND
     1     1     3 ar  
     2     1    14 ar  
     3     1    21 1   
     4     2    14 ar  
     5     2    15 ar  
     6     2    30 1   
     7     3    16 ar  
     8     4     5 ar  
     9     4     7 ar  
    10     4    17 1   
    11     5     9 ar  
    12     5    31 1   
    13     6     7 ar  
    14     6     8 ar  
    15     6    32 1   
    16     7    33 1   
    17     8     9 ar  
    18     8    20 1   
    19     9    34 1   
    20    10    11 1   
    21    10    21 1   
    22    10    24 1   
    23    10    35 1   
    24    11    12 1   
    25    11    36 1   
    26    11    37 1   
    27    12    23 1   
    28    12    38 1   
    29    12    39 1   
    30    13    23 1   
    31    13    25 ar  
    32    13    29 ar  
    33    15    16 ar  
    34    15    18 1   
    35    16    17 1   
    36    17    19 1   
    37    18    19 2   
    38    20    22 1   
    39    21    40 1   
    40    22    41 1   
    41    22    42 1   
    42    22    43 1   
    43    23    24 1   
    44    24    44 1   
    45    24    45 1   
    46    25    26 ar  
    47    25    46 1   
    48    26    27 ar  
    49    26    47 1   
    50    27    28 ar  
    51    28    29 ar  
    52    28    48 1   
    53    29    49 1   
@<TRIPOS>SUBSTRUCTURE
     1 OWQ         1 TEMP              0 ****  ****    0 ROOT
