@<TRIPOS>MOLECULE
OWQ
   49    53     1     0     0
SMALL
bcc


@<TRIPOS>ATOM
      1 C1          25.3560     2.1780   -65.1510 ca         1 OWQ       0.935900
      2 C3          27.2950     1.1230   -65.7980 ca         1 OWQ       0.574200
      3 N6          25.5200     2.0180   -63.8410 nb         1 OWQ      -0.780000
      4 C9          26.6030     1.2000   -61.0470 ca         1 OWQ      -0.029200
      5 C10         26.7240     0.1830   -60.1050 ca         1 OWQ      -0.075500
      6 C11         25.4210     2.5490   -59.4460 ca         1 OWQ      -0.186000
      7 C12         25.9550     2.3780   -60.7170 ca         1 OWQ      -0.075500
      8 C14         25.5490     1.5400   -58.4940 ca         1 OWQ       0.149100
      9 C15         26.2100     0.3570   -58.8360 ca         1 OWQ      -0.186000
     10 C19         23.2220     3.2930   -64.7070 c5         1 OWQ       0.229500
     11 C20         22.2700     2.2200   -64.1750 c5         1 OWQ      -0.116400
     12 C21         21.0520     3.0270   -63.7550 c5         1 OWQ       0.230800
     13 C24         20.0340     5.0230   -64.7960 ca         1 OWQ       0.243600
     14 N2          26.2000     1.7540   -66.1350 nb         1 OWQ      -0.781000
     15 C4          27.5770     0.9010   -64.4480 ca         1 OWQ      -0.280200
     16 C5          26.6380     1.3810   -63.5420 ca         1 OWQ       0.481800
     17 N7          27.1400     1.0210   -62.3400 na         1 OWQ       0.053100
     18 N8          28.5770     0.2870   -63.7580 nc         1 OWQ      -0.175400
     19 N13         28.3100     0.3670   -62.5180 nd         1 OWQ      -0.154400
     20 O16         25.0740     1.6130   -57.2410 os         1 OWQ      -0.312900
     21 N17         24.2640     2.8260   -65.5810 nu         1 OWQ      -0.852900
     22 C18         24.4140     2.7960   -56.8320 c3         1 OWQ       0.123700
     23 N22         21.0540     4.1500   -64.6800 nh         1 OWQ      -0.697000
     24 C23         22.2860     4.2600   -65.4310 c5         1 OWQ       0.216800
     25 C25         18.8930     4.9470   -63.9740 ca         1 OWQ      -0.338300
     26 C26         17.8790     5.8680   -64.1410 ca         1 OWQ       0.437200
     27 N27         17.8840     6.8530   -65.0370 nb         1 OWQ      -0.702000
     28 C28         18.9640     6.9230   -65.8120 ca         1 OWQ       0.437200
     29 C29         20.0420     6.0630   -65.7450 ca         1 OWQ      -0.338300
     30 H1          27.9540     0.7900   -66.5920 h4         1 OWQ       0.044100
     31 H2          27.2190    -0.7450   -60.3600 ha         1 OWQ       0.154000
     32 H3          24.9200     3.4800   -59.2190 ha         1 OWQ       0.147000
     33 H4          25.8580     3.1760   -61.4400 ha         1 OWQ       0.154000
     34 H5          26.3070    -0.4320   -58.1010 ha         1 OWQ       0.147000
     35 H6          23.6810     3.8100   -63.8610 h1         1 OWQ       0.086700
     36 H7          22.0170     1.5260   -64.9780 hc         1 OWQ       0.069700
     37 H8          22.7010     1.6510   -63.3540 hc         1 OWQ       0.069700
     38 H9          20.1310     2.4460   -63.8350 h1         1 OWQ       0.051200
     39 H10         21.1340     3.3720   -62.7180 h1         1 OWQ       0.051200
     40 H11         24.1090     2.8340   -66.5760 hn         1 OWQ       0.458800
     41 H12         24.1170     2.6420   -55.7980 h1         1 OWQ       0.043367
     42 H13         25.0710     3.6680   -56.8840 h1         1 OWQ       0.043367
     43 H14         23.5190     2.9930   -57.4280 h1         1 OWQ       0.043367
     44 H15         22.6750     5.2800   -65.4240 h1         1 OWQ       0.052700
     45 H16         22.1450     3.9650   -66.4790 h1         1 OWQ       0.052700
     46 H17         18.7940     4.1920   -63.2070 ha         1 OWQ       0.136500
     47 H18         17.0040     5.8020   -63.5030 h4         1 OWQ       0.012100
     48 H19         18.9780     7.7210   -66.5480 h4         1 OWQ       0.012100
     49 H20         20.8660     6.2010   -66.4320 ha         1 OWQ       0.136500
@<TRIPOS>BOND
     1     1     3 ar  
     2     1    14 ar  
     3     1    21 1   
     4     2    14 ar  
     5     2    15 ar  
     6     2    30 1   
     7     3    16 ar  
     8     4     5 ar  
     9     4     7 ar  
    10     4    17 1   
    11     5     9 ar  
    12     5    31 1   
    13     6     7 ar  
    14     6     8 ar  
    15     6    32 1   
    16     7    33 1   
    17     8     9 ar  
    18     8    20 1   
    19     9    34 1   
    20    10    11 1   
    21    10    21 1   
    22    10    24 1   
    23    10    35 1   
    24    11    12 1   
    25    11    36 1   
    26    11    37 1   
    27    12    23 1   
    28    12    38 1   
    29    12    39 1   
    30    13    23 1   
    31    13    25 ar  
    32    13    29 ar  
    33    15    16 ar  
    34    15    18 1   
    35    16    17 1   
    36    17    19 1   
    37    18    19 2   
    38    20    22 1   
    39    21    40 1   
    40    22    41 1   
    41    22    42 1   
    42    22    43 1   
    43    23    24 1   
    44    24    44 1   
    45    24    45 1   
    46    25    26 ar  
    47    25    46 1   
    48    26    27 ar  
    49    26    47 1   
    50    27    28 ar  
    51    28    29 ar  
    52    28    48 1   
    53    29    49 1   
@<TRIPOS>SUBSTRUCTURE
     1 OWQ         1 TEMP              0 ****  ****    0 ROOT
