@<TRIPOS>MOLECULE
OWS
   70    74     1     0     0
SMALL
abcg2


@<TRIPOS>ATOM
      1 C12        -10.2710    37.1320    -3.6900 c6         1 OWS       0.196300
      2 C17        -14.9630    35.7680    -6.8690 c3         1 OWS      -0.047800
      3 C13        -11.4750    36.7620    -4.5290 ca         1 OWS      -0.105300
      4 C15        -13.1730    37.3820    -6.1280 ca         1 OWS      -0.114000
      5 C16        -13.7610    36.1240    -6.0440 ca         1 OWS      -0.067300
      6 C14        -12.0420    37.6950    -5.3850 ca         1 OWS      -0.082500
      7 C11        -10.6650    37.3110    -2.2460 ca         1 OWS      -0.072300
      8 C05         -9.4900    35.2390    -1.7580 ce         1 OWS       0.386800
      9 C06        -10.3310    36.3340    -1.3150 ca         1 OWS      -0.161900
     10 C07        -10.7500    36.4510     0.0090 ca         1 OWS      -0.081000
     11 C08        -11.4950    37.5490     0.4020 ca         1 OWS      -0.110000
     12 C09        -11.8160    38.5340    -0.5260 ca         1 OWS      -0.095000
     13 C10        -11.4020    38.4150    -1.8460 ca         1 OWS      -0.094000
     14 C18        -13.1840    35.1900    -5.1840 ca         1 OWS      -0.114000
     15 C19        -12.0610    35.5020    -4.4340 ca         1 OWS      -0.082500
     16 C20         -7.4610    35.0730    -5.1570 ce         1 OWS      -0.268200
     17 C21         -6.7190    35.0460    -6.2710 cf         1 OWS      -0.088200
     18 C22         -5.6600    34.0840    -6.5630 ca         1 OWS      -0.051800
     19 C23         -5.0850    34.0730    -7.8340 ca         1 OWS       0.089100
     20 C25         -6.4810    34.4450    -9.6750 c3         1 OWS       0.148900
     21 C26         -4.0550    33.1660    -8.1410 ca         1 OWS       0.118100
     22 C28         -2.5490    32.3350    -9.7670 c3         1 OWS       0.144900
     23 C29         -3.6100    32.2840    -7.1690 ca         1 OWS      -0.181000
     24 C30         -4.1760    32.2910    -5.8920 ca         1 OWS      -0.054300
     25 C31         -3.6980    31.3070    -4.8610 c3         1 OWS       0.046200
     26 C32         -4.3840    29.9670    -4.9340 ca         1 OWS      -0.313300
     27 C33         -5.3590    29.6310    -5.8440 ca         1 OWS       0.179900
     28 C35         -5.5810    27.5570    -4.9920 ca         1 OWS       0.403900
     29 C38         -4.0520    28.9340    -4.0220 ca         1 OWS       0.421900
     30 C40         -5.1850    33.1840    -5.5990 ca         1 OWS      -0.113000
     31 N03         -9.1990    36.1360    -3.8170 n          1 OWS      -0.178800
     32 N04         -8.9510    35.1660    -2.9090 n2         1 OWS      -0.432300
     33 N34         -5.9700    28.4470    -5.9020 nb         1 OWS      -0.277000
     34 N36         -6.2140    26.3590    -4.9860 nv         1 OWS      -1.053900
     35 N37         -4.6470    27.7470    -4.0600 nb         1 OWS      -0.332000
     36 N39         -3.1350    29.1260    -3.0580 nv         1 OWS      -1.081900
     37 O01         -8.7230    36.9600    -5.8490 o          1 OWS      -0.583100
     38 O24         -5.4880    34.9500    -8.7880 os         1 OWS      -0.347100
     39 O27         -3.5690    33.2400    -9.3900 os         1 OWS      -0.325100
     40 H1          -9.8760    38.0820    -4.0570 h1         1 OWS       0.090700
     41 H2         -14.6840    35.1320    -7.7120 hc         1 OWS       0.042367
     42 H3         -15.7010    35.2180    -6.2850 hc         1 OWS       0.042367
     43 H4         -15.4470    36.6550    -7.2760 hc         1 OWS       0.042367
     44 H5         -13.5980    38.1290    -6.7880 ha         1 OWS       0.111000
     45 H6         -11.5980    38.6790    -5.4780 ha         1 OWS       0.115000
     46 H7          -9.2510    34.4340    -1.0710 h4         1 OWS       0.038800
     47 H8         -10.4820    35.6850     0.7270 ha         1 OWS       0.116000
     48 H9         -11.8230    37.6430     1.4290 ha         1 OWS       0.117000
     49 H10        -12.3910    39.3980    -0.2210 ha         1 OWS       0.116000
     50 H11        -11.6620    39.1820    -2.5660 ha         1 OWS       0.121000
     51 H12        -13.6200    34.2010    -5.0960 ha         1 OWS       0.111000
     52 H13        -11.6480    34.7490    -3.7730 ha         1 OWS       0.115000
     53 H14         -7.3350    34.3470    -4.3690 ha         1 OWS       0.206000
     54 H15         -6.9050    35.8000    -7.0260 ha         1 OWS       0.210000
     55 H16         -6.6490    35.2060   -10.4350 h1         1 OWS       0.038033
     56 H17         -6.1610    33.5230   -10.1640 h1         1 OWS       0.038033
     57 H18         -7.4220    34.2570    -9.1510 h1         1 OWS       0.038033
     58 H19         -2.3130    32.5520   -10.8050 h1         1 OWS       0.042033
     59 H20         -1.6460    32.4660    -9.1650 h1         1 OWS       0.042033
     60 H21         -2.8770    31.2960    -9.6880 h1         1 OWS       0.042033
     61 H22         -2.8180    31.5770    -7.3800 ha         1 OWS       0.120000
     62 H23         -2.6160    31.1690    -4.9730 hc         1 OWS       0.044200
     63 H24         -3.8430    31.7340    -3.8640 hc         1 OWS       0.044200
     64 H25         -5.6800    30.3580    -6.5830 h4         1 OWS       0.024100
     65 H26         -5.6060    33.1910    -4.6010 ha         1 OWS       0.124000
     66 H27         -6.7310    26.0990    -5.8080 hn         1 OWS       0.487000
     67 H28         -5.7950    25.6050    -4.4680 hn         1 OWS       0.487000
     68 H29         -2.8440    28.3420    -2.5010 hn         1 OWS       0.492000
     69 H30         -2.5380    29.9340    -3.0530 hn         1 OWS       0.492000
     70 C02         -8.4890    36.1180    -4.9960 c          1 OWS       0.627300
@<TRIPOS>BOND
     1     1     3 1   
     2     1     7 1   
     3     1    31 1   
     4     1    40 1   
     5     2     5 1   
     6     2    41 1   
     7     2    42 1   
     8     2    43 1   
     9     3     6 ar  
    10     3    15 ar  
    11     4     5 ar  
    12     4     6 ar  
    13     4    44 1   
    14     5    14 ar  
    15     6    45 1   
    16     7     9 ar  
    17     7    13 ar  
    18     8     9 1   
    19     8    32 2   
    20     8    46 1   
    21     9    10 ar  
    22    10    11 ar  
    23    10    47 1   
    24    11    12 ar  
    25    11    48 1   
    26    12    13 ar  
    27    12    49 1   
    28    13    50 1   
    29    14    15 ar  
    30    14    51 1   
    31    15    52 1   
    32    16    17 2   
    33    16    53 1   
    34    16    70 1   
    35    17    18 1   
    36    17    54 1   
    37    18    19 ar  
    38    18    30 ar  
    39    19    21 ar  
    40    19    38 1   
    41    20    38 1   
    42    20    55 1   
    43    20    56 1   
    44    20    57 1   
    45    21    23 ar  
    46    21    39 1   
    47    22    39 1   
    48    22    58 1   
    49    22    59 1   
    50    22    60 1   
    51    23    24 ar  
    52    23    61 1   
    53    24    25 1   
    54    24    30 ar  
    55    25    26 1   
    56    25    62 1   
    57    25    63 1   
    58    26    27 ar  
    59    26    29 ar  
    60    27    33 ar  
    61    27    64 1   
    62    28    33 ar  
    63    28    34 1   
    64    28    35 ar  
    65    29    35 ar  
    66    29    36 1   
    67    30    65 1   
    68    31    32 1   
    69    31    70 1   
    70    34    66 1   
    71    34    67 1   
    72    36    68 1   
    73    36    69 1   
    74    37    70 2   
@<TRIPOS>SUBSTRUCTURE
     1 OWS         1 TEMP              0 ****  ****    0 ROOT
