@<TRIPOS>MOLECULE
OWS
   70    74     1     0     0
SMALL
No Charge or Current Charge


@<TRIPOS>ATOM
      1 C12        -10.4610    36.8600    -3.8060 c6         1 OWS       0.196300
      2 C17        -15.5340    35.0220    -6.1560 c3         1 OWS      -0.047800
      3 C13        -11.7860    36.3770    -4.4120 ca         1 OWS      -0.105300
      4 C15        -13.4720    36.5060    -6.1740 ca         1 OWS      -0.114000
      5 C16        -14.2250    35.4980    -5.5450 ca         1 OWS      -0.067300
      6 C14        -12.2600    36.9440    -5.6110 ca         1 OWS      -0.082500
      7 C11        -10.5950    37.1870    -2.3110 ca         1 OWS      -0.072300
      8 C05         -9.2340    35.1460    -1.8450 ce         1 OWS       0.386800
      9 C06         -9.9810    36.3430    -1.3640 ca         1 OWS      -0.161900
     10 C07        -10.0970    36.6280     0.0110 ca         1 OWS      -0.081000
     11 C08        -10.8200    37.7560     0.4360 ca         1 OWS      -0.110000
     12 C09        -11.4300    38.5990    -0.5080 ca         1 OWS      -0.095000
     13 C10        -11.3190    38.3150    -1.8800 ca         1 OWS      -0.094000
     14 C18        -13.7500    34.9270    -4.3500 ca         1 OWS      -0.114000
     15 C19        -12.5390    35.3630    -3.7860 ca         1 OWS      -0.082500
     16 C20         -7.4400    34.9940    -5.4330 ce         1 OWS      -0.268200
     17 C21         -6.5810    34.9930    -6.4990 cf         1 OWS      -0.088200
     18 C22         -5.4660    34.0610    -6.8170 ca         1 OWS      -0.051800
     19 C23         -4.7730    34.1490    -8.0560 ca         1 OWS       0.089100
     20 C25         -4.6410    35.4020   -10.2370 c3         1 OWS       0.148900
     21 C26         -3.7050    33.2350    -8.3340 ca         1 OWS       0.118100
     22 C28         -1.9380    32.3990    -9.8730 c3         1 OWS       0.144900
     23 C29         -3.3580    32.2610    -7.3690 ca         1 OWS      -0.181000
     24 C30         -4.0430    32.1820    -6.1480 ca         1 OWS      -0.054300
     25 C31         -3.6690    31.1230    -5.1140 c3         1 OWS       0.046200
     26 C32         -4.7290    30.0220    -4.9900 ca         1 OWS      -0.313300
     27 C33         -5.4530    29.5890    -6.1200 ca         1 OWS       0.179900
     28 C35         -6.5850    28.1010    -4.8210 ca         1 OWS       0.403900
     29 C38         -5.0340    29.3750    -3.7790 ca         1 OWS       0.421900
     30 C40         -5.0870    33.0770    -5.8800 ca         1 OWS      -0.113000
     31 N03         -9.3570    35.8870    -4.0670 n          1 OWS      -0.178800
     32 N04         -9.1710    34.8810    -3.1170 n2         1 OWS      -0.432300
     33 N34         -6.3880    28.6230    -6.0370 nb         1 OWS      -0.277000
     34 N36         -7.5200    27.1280    -4.7320 nv         1 OWS      -1.053900
     35 N37         -5.9590    28.4160    -3.6840 nb         1 OWS      -0.332000
     36 N39         -4.4030    29.6560    -2.6130 nv         1 OWS      -1.081900
     37 O01         -8.7040    36.9040    -6.0360 o          1 OWS      -0.583100
     38 O24         -5.2000    35.1440    -8.9370 os         1 OWS      -0.347100
     39 O27         -3.0140    33.2930    -9.5350 os         1 OWS      -0.325100
     40 H1         -10.1970    37.8090    -4.2950 h1         1 OWS       0.090700
     41 H2         -15.3610    34.1910    -6.8510 hc         1 OWS       0.042367
     42 H3         -16.2330    34.6750    -5.3860 hc         1 OWS       0.042367
     43 H4         -16.0310    35.8260    -6.7130 hc         1 OWS       0.042367
     44 H5         -13.8240    36.9520    -7.1010 ha         1 OWS       0.111000
     45 H6         -11.6890    37.7230    -6.1120 ha         1 OWS       0.115000
     46 H7          -8.8400    34.4570    -1.0960 h4         1 OWS       0.038800
     47 H8          -9.6290    35.9770     0.7480 ha         1 OWS       0.116000
     48 H9         -10.9080    37.9750     1.4980 ha         1 OWS       0.117000
     49 H10        -11.9910    39.4700    -0.1770 ha         1 OWS       0.116000
     50 H11        -11.7960    38.9690    -2.6070 ha         1 OWS       0.121000
     51 H12        -14.3190    34.1420    -3.8560 ha         1 OWS       0.111000
     52 H13        -12.1860    34.9090    -2.8630 ha         1 OWS       0.115000
     53 H14         -7.3550    34.2210    -4.6790 ha         1 OWS       0.206000
     54 H15         -6.7230    35.7940    -7.2270 ha         1 OWS       0.210000
     55 H16         -5.1660    36.2400   -10.7120 h1         1 OWS       0.038033
     56 H17         -3.5800    35.6730   -10.1620 h1         1 OWS       0.038033
     57 H18         -4.7470    34.5280   -10.8920 h1         1 OWS       0.038033
     58 H19         -1.5480    32.6360   -10.8700 h1         1 OWS       0.042033
     59 H20         -1.1130    32.4910    -9.1550 h1         1 OWS       0.042033
     60 H21         -2.2850    31.3570    -9.8840 h1         1 OWS       0.042033
     61 H22         -2.5580    31.5520    -7.5520 ha         1 OWS       0.120000
     62 H23         -2.7040    30.6680    -5.3670 hc         1 OWS       0.044200
     63 H24         -3.5140    31.6270    -4.1530 hc         1 OWS       0.044200
     64 H25         -5.2850    30.0130    -7.1090 h4         1 OWS       0.024100
     65 H26         -5.5990    32.9950    -4.9270 ha         1 OWS       0.124000
     66 H27         -7.8540    26.6990    -5.5910 hn         1 OWS       0.487000
     67 H28         -7.5430    26.5550    -3.8920 hn         1 OWS       0.487000
     68 H29         -4.5280    29.0080    -1.8410 hn         1 OWS       0.492000
     69 H30         -3.5210    30.1580    -2.6450 hn         1 OWS       0.492000
     70 C02         -8.5320    36.0010    -5.2230 c          1 OWS       0.627300
@<TRIPOS>BOND
     1     1     3 1   
     2     1     7 1   
     3     1    31 1   
     4     1    40 1   
     5     2     5 1   
     6     2    41 1   
     7     2    42 1   
     8     2    43 1   
     9     3     6 ar  
    10     3    15 ar  
    11     4     5 ar  
    12     4     6 ar  
    13     4    44 1   
    14     5    14 ar  
    15     6    45 1   
    16     7     9 ar  
    17     7    13 ar  
    18     8     9 1   
    19     8    32 2   
    20     8    46 1   
    21     9    10 ar  
    22    10    11 ar  
    23    10    47 1   
    24    11    12 ar  
    25    11    48 1   
    26    12    13 ar  
    27    12    49 1   
    28    13    50 1   
    29    14    15 ar  
    30    14    51 1   
    31    15    52 1   
    32    16    17 2   
    33    16    53 1   
    34    16    70 1   
    35    17    18 1   
    36    17    54 1   
    37    18    19 ar  
    38    18    30 ar  
    39    19    21 ar  
    40    19    38 1   
    41    20    38 1   
    42    20    55 1   
    43    20    56 1   
    44    20    57 1   
    45    21    23 ar  
    46    21    39 1   
    47    22    39 1   
    48    22    58 1   
    49    22    59 1   
    50    22    60 1   
    51    23    24 ar  
    52    23    61 1   
    53    24    25 1   
    54    24    30 ar  
    55    25    26 1   
    56    25    62 1   
    57    25    63 1   
    58    26    27 ar  
    59    26    29 ar  
    60    27    33 ar  
    61    27    64 1   
    62    28    33 ar  
    63    28    34 1   
    64    28    35 ar  
    65    29    35 ar  
    66    29    36 1   
    67    30    65 1   
    68    31    32 1   
    69    31    70 1   
    70    34    66 1   
    71    34    67 1   
    72    36    68 1   
    73    36    69 1   
    74    37    70 2   
@<TRIPOS>SUBSTRUCTURE
     1 OWS         1 TEMP              0 ****  ****    0 ROOT
