@<TRIPOS>MOLECULE
OWU
   83    89     1     0     0
SMALL
abcg2


@<TRIPOS>ATOM
      1 N1          11.8030     3.9070     5.0960 nb         1 OWU      -0.269000
      2 C7          18.5850     8.4620     3.9550 c3         1 OWU       0.169800
      3 C8          18.1370     9.2580     1.6800 c3         1 OWU       0.252900
      4 N2          12.8140     6.0680     4.8480 nb         1 OWU      -0.184000
      5 C9          16.7090     9.5700     1.7200 c1         1 OWU      -0.096100
      6 O1          13.4850     7.1350     1.4910 os         1 OWU      -0.434000
      7 C1          11.8250     5.1890     4.7040 ca         1 OWU       0.180900
      8 O5          13.2770     6.0480    -1.4770 oh         1 OWU      -0.688000
      9 C5          15.4440     7.5000     5.4690 c5         1 OWU       0.308300
     10 C6          17.2370     8.6530     4.6190 c5         1 OWU       0.166300
     11 N3          15.2160     4.0340     6.5310 nc         1 OWU      -0.539100
     12 C4          15.8220     5.1890     6.4310 cd         1 OWU       0.391700
     13 C3          13.9840     4.2270     5.9270 ca         1 OWU      -0.075600
     14 C2          13.8700     5.5410     5.4680 ca         1 OWU       0.140500
     15 N4          15.0620     6.1490     5.7950 na         1 OWU      -0.302300
     16 C           12.8710     3.3970     5.7250 ca         1 OWU       0.401900
     17 O           16.5040     7.4320     4.5350 os         1 OWU      -0.466000
     18 C10         15.5270     9.8020     1.7130 cg         1 OWU      -0.113200
     19 C11         14.1680    10.1570     1.8450 cc         1 OWU       0.464700
     20 C12         12.3870    11.2210     2.3860 ca         1 OWU      -0.080600
     21 C13         11.3830    12.0780     2.8760 ca         1 OWU       0.418900
     22 C14          9.8380    10.7070     1.8390 ca         1 OWU       0.180900
     23 C15         11.9610    10.1110     1.6550 ca         1 OWU       0.146500
     24 C16         13.1250     8.1760     0.5950 c5         1 OWU       0.271300
     25 C17         14.2380     6.1290     0.7830 c5         1 OWU       0.131300
     26 C18         15.5880     5.9490     1.4700 c3         1 OWU       0.164800
     27 C19         17.6580     3.0750     3.0160 c3         1 OWU      -0.347400
     28 C20         18.3980     4.2610     3.6310 c3         1 OWU       0.135000
     29 C21         19.8450     6.0360     2.6550 c          1 OWU       0.604100
     30 C22         19.7170     7.4550     2.0910 c3         1 OWU       0.074800
     31 C23         14.3260     6.5910    -0.6890 c5         1 OWU       0.148300
     32 C24         14.1250     8.0950    -0.5660 c5         1 OWU       0.138300
     33 C25         17.2800     8.9650     6.1150 c5         1 OWU       0.106300
     34 C26         15.9350     8.3710     6.6420 c5         1 OWU       0.098300
     35 N10         13.1050     9.4360     1.2990 na         1 OWU      -0.278300
     36 N11         15.5620     4.8780     2.4940 n7         1 OWU      -0.826300
     37 N12         18.6750     5.3750     2.7500 ns         1 OWU      -0.513900
     38 N5          18.4870     8.1120     2.5300 n3         1 OWU      -0.734600
     39 N6          13.7560    11.2320     2.4960 nd         1 OWU      -0.515100
     40 N8          10.1070    11.7960     2.5700 nb         1 OWU      -0.284000
     41 N9          10.6970     9.8180     1.3440 nb         1 OWU      -0.203000
     42 O6          13.6520     8.6910    -1.7520 oh         1 OWU      -0.677000
     43 O7          17.4220    10.3600     6.2920 oh         1 OWU      -0.697000
     44 O8          14.9280     9.3370     6.8780 oh         1 OWU      -0.690000
     45 S           16.1800     3.3940     2.0180 s6         1 OWU       1.143100
     46 H1          19.0940     7.6430     4.4640 h1         1 OWU       0.055700
     47 H2          19.1780     9.3760     4.0990 h1         1 OWU       0.055700
     48 H3          18.4200     9.0310     0.6510 h1         1 OWU       0.062700
     49 H4          18.6890    10.1640     1.9750 h1         1 OWU       0.062700
     50 H5          10.9320     5.5470     4.2030 h5         1 OWU       0.057100
     51 H6          13.4450     5.1040    -1.5910 ho         1 OWU       0.512000
     52 H7          14.5590     7.9680     5.0320 h2         1 OWU       0.128700
     53 H8          16.6750     9.4510     4.1260 h1         1 OWU       0.089700
     54 H9          16.8090     5.4110     6.8070 h5         1 OWU       0.063800
     55 H10         11.9690     1.6370     5.9210 hn         1 OWU       0.466500
     56 H11         13.6340     1.5490     6.0240 hn         1 OWU       0.466500
     57 H12          8.7900    10.5280     1.6290 h5         1 OWU       0.053100
     58 H13         12.1150     8.0230     0.2090 h2         1 OWU       0.123700
     59 H14         13.6990     5.1800     0.7990 h1         1 OWU       0.085700
     60 H15         16.3470     5.7320     0.7200 h1         1 OWU       0.077700
     61 H16         15.8630     6.8730     1.9720 h1         1 OWU       0.077700
     62 H17         17.3510     2.4030     3.8150 h1         1 OWU       0.116700
     63 H18         18.2840     2.5190     2.3170 h1         1 OWU       0.116700
     64 H19         19.3460     3.8780     4.0050 h1         1 OWU       0.063700
     65 H20         17.8320     4.6330     4.4890 h1         1 OWU       0.063700
     66 H21         20.6230     7.9850     2.4120 h1         1 OWU       0.070200
     67 H22         19.7240     7.4020     1.0000 h1         1 OWU       0.070200
     68 H23         15.3020     6.3450    -1.1110 h1         1 OWU       0.064700
     69 H24         15.0820     8.5230    -0.2690 h1         1 OWU       0.050700
     70 H25         18.1150     8.4370     6.5830 h1         1 OWU       0.046700
     71 H26         16.0950     7.7660     7.5360 h1         1 OWU       0.056700
     72 H27         16.0100     5.1790     3.3480 hn         1 OWU       0.477000
     73 H28         17.9150     5.8010     2.2470 hn         1 OWU       0.318500
     74 H30         10.8520    13.6780     3.9560 hn         1 OWU       0.484000
     75 H31         12.4480    13.1660     4.2260 hn         1 OWU       0.484000
     76 H32         13.6770     9.6500    -1.6410 ho         1 OWU       0.512000
     77 H33         17.5920    10.5450     7.2250 ho         1 OWU       0.509000
     78 H34         15.1940     9.8970     7.6170 ho         1 OWU       0.511000
     79 N           12.8150     2.1150     6.2090 nv         1 OWU      -0.998900
     80 N7          11.6620    13.1970     3.5930 nv         1 OWU      -1.025900
     81 O4          20.9300     5.5770     2.9980 o          1 OWU      -0.589100
     82 O3          16.5980     3.5120     0.6350 o          1 OWU      -0.534500
     83 O2          15.2040     2.3730     2.3230 o          1 OWU      -0.534500
@<TRIPOS>BOND
     1     1     7 ar  
     2     1    16 ar  
     3     2    10 1   
     4     2    38 1   
     5     2    46 1   
     6     2    47 1   
     7     3     5 1   
     8     3    38 1   
     9     3    48 1   
    10     3    49 1   
    11     4     7 ar  
    12     4    14 ar  
    13     5    18 3   
    14     6    24 1   
    15     6    25 1   
    16     7    50 1   
    17     8    31 1   
    18     8    51 1   
    19     9    15 1   
    20     9    17 1   
    21     9    34 1   
    22     9    52 1   
    23    10    17 1   
    24    10    33 1   
    25    10    53 1   
    26    11    12 2   
    27    11    13 1   
    28    12    15 1   
    29    12    54 1   
    30    13    14 ar  
    31    13    16 ar  
    32    14    15 1   
    33    16    79 1   
    34    18    19 1   
    35    19    35 1   
    36    19    39 2   
    37    20    21 ar  
    38    20    23 ar  
    39    20    39 1   
    40    21    40 ar  
    41    21    80 1   
    42    22    40 ar  
    43    22    41 ar  
    44    22    57 1   
    45    23    35 1   
    46    23    41 ar  
    47    24    32 1   
    48    24    35 1   
    49    24    58 1   
    50    25    26 1   
    51    25    31 1   
    52    25    59 1   
    53    26    36 1   
    54    26    60 1   
    55    26    61 1   
    56    27    28 1   
    57    27    45 1   
    58    27    62 1   
    59    27    63 1   
    60    28    37 1   
    61    28    64 1   
    62    28    65 1   
    63    29    30 1   
    64    29    37 1   
    65    29    81 2   
    66    30    38 1   
    67    30    66 1   
    68    30    67 1   
    69    31    32 1   
    70    31    68 1   
    71    32    42 1   
    72    32    69 1   
    73    33    34 1   
    74    33    43 1   
    75    33    70 1   
    76    34    44 1   
    77    34    71 1   
    78    36    45 1   
    79    36    72 1   
    80    37    73 1   
    81    42    76 1   
    82    43    77 1   
    83    44    78 1   
    84    45    82 2   
    85    45    83 2   
    86    55    79 1   
    87    56    79 1   
    88    74    80 1   
    89    75    80 1   
@<TRIPOS>SUBSTRUCTURE
     1 OWU         1 TEMP              0 ****  ****    0 ROOT
