@<TRIPOS>MOLECULE
OWU
   83    89     1     0     0
SMALL
No Charge or Current Charge


@<TRIPOS>ATOM
      1 N1          13.2810     2.1030     5.7970 nb         1 OWU      -0.269000
      2 C7          18.2680     8.4210     4.1830 c3         1 OWU       0.169800
      3 C8          18.0570     9.1820     1.7960 c3         1 OWU       0.252900
      4 N2          13.4000     4.4560     5.2420 nb         1 OWU      -0.184000
      5 C9          16.6670     9.6560     1.7330 c1         1 OWU      -0.096100
      6 O1          12.6520     7.6770     1.2060 os         1 OWU      -0.434000
      7 C1          12.8420     3.2240     5.1780 ca         1 OWU       0.180900
      8 O5          12.7350     6.1240    -1.3390 oh         1 OWU      -0.688000
      9 C5          15.2250     6.9840     5.7180 c5         1 OWU       0.308300
     10 C6          16.8670     8.4180     4.8520 c5         1 OWU       0.166300
     11 N3          16.1840     3.8130     7.3830 nc         1 OWU      -0.539100
     12 C4          16.3180     5.1220     7.1070 cd         1 OWU       0.391700
     13 C3          15.0370     3.4850     6.6710 ca         1 OWU      -0.075600
     14 C2          14.5100     4.5600     6.0010 ca         1 OWU       0.140500
     15 N4          15.3180     5.6350     6.2610 na         1 OWU      -0.302300
     16 C           14.3850     2.2390     6.5510 ca         1 OWU       0.401900
     17 O           16.2600     7.1130     4.7140 os         1 OWU      -0.466000
     18 C10         15.5260    10.0630     1.6140 cg         1 OWU      -0.113200
     19 C11         14.2160    10.5960     1.4410 cc         1 OWU       0.464700
     20 C12         12.5820    11.9860     1.5360 ca         1 OWU      -0.080600
     21 C13         11.7240    13.0840     1.7530 ca         1 OWU       0.418900
     22 C14         10.0460    11.9220     0.7150 ca         1 OWU       0.180900
     23 C15         12.0790    10.8850     0.8910 ca         1 OWU       0.146500
     24 C16         13.0040     8.6530     0.1950 c5         1 OWU       0.271300
     25 C17         13.4550     6.4820     1.0210 c5         1 OWU       0.131300
     26 C18         14.6200     6.5270     2.0530 c3         1 OWU       0.164800
     27 C19         17.1150     3.3260     2.4340 c3         1 OWU      -0.347400
     28 C20         17.7030     4.0120     3.6900 c3         1 OWU       0.135000
     29 C21         19.3440     5.6660     2.7000 c          1 OWU       0.604100
     30 C22         19.4580     7.1780     2.3510 c3         1 OWU       0.074800
     31 C23         13.8430     6.5220    -0.5020 c5         1 OWU       0.148300
     32 C24         14.1960     8.0440    -0.6260 c5         1 OWU       0.138300
     33 C25         16.8780     8.6260     6.3940 c5         1 OWU       0.106300
     34 C26         15.4280     8.1720     6.7320 c5         1 OWU       0.098300
     35 N10         13.1090     9.9860     0.8150 na         1 OWU      -0.278300
     36 N11         15.1800     5.2150     2.4430 n7         1 OWU      -0.826300
     37 N12         18.2220     5.3520     3.4330 ns         1 OWU      -0.513900
     38 N5          18.2830     8.0450     2.7330 n3         1 OWU      -0.734600
     39 N6          13.9210    11.8270     1.8900 nd         1 OWU      -0.515100
     40 N8          10.4460    13.0550     1.3430 nb         1 OWU      -0.284000
     41 N9          10.8020    10.8260     0.4640 nb         1 OWU      -0.203000
     42 O6          14.2900     8.5160    -1.9860 oh         1 OWU      -0.677000
     43 O7          17.0970     9.9900     6.8010 oh         1 OWU      -0.697000
     44 O8          14.5380     9.2720     6.5000 oh         1 OWU      -0.690000
     45 S           16.1020     4.3510     1.3590 s6         1 OWU       1.143100
     46 H1          18.8880     7.7190     4.7560 h1         1 OWU       0.055700
     47 H2          18.7220     9.4120     4.3230 h1         1 OWU       0.055700
     48 H3          18.3200     8.8800     0.7730 h1         1 OWU       0.062700
     49 H4          18.7100    10.0270     2.0510 h1         1 OWU       0.062700
     50 H5          11.9470     3.1260     4.5650 h5         1 OWU       0.057100
     51 H6          12.7150     5.1390    -1.3490 ho         1 OWU       0.512000
     52 H7          14.2320     7.0660     5.2570 h2         1 OWU       0.128700
     53 H8          16.2260     9.1620     4.3640 h1         1 OWU       0.089700
     54 H9          17.1180     5.7560     7.4710 h5         1 OWU       0.063800
     55 H10         14.4780     0.2100     6.8710 hn         1 OWU       0.466500
     56 H11         15.7560     1.1390     7.5980 hn         1 OWU       0.466500
     57 H12          9.0120    11.8890     0.3780 h5         1 OWU       0.053100
     58 H13         12.1540     8.7290    -0.4960 h2         1 OWU       0.123700
     59 H14         12.8340     5.6080     1.2590 h1         1 OWU       0.085700
     60 H15         15.4190     7.1860     1.6950 h1         1 OWU       0.077700
     61 H16         14.2130     7.0080     2.9520 h1         1 OWU       0.077700
     62 H17         16.4830     2.4830     2.7320 h1         1 OWU       0.116700
     63 H18         17.9210     2.9550     1.7930 h1         1 OWU       0.116700
     64 H19         18.5070     3.3890     4.1060 h1         1 OWU       0.063700
     65 H20         16.9250     4.0880     4.4600 h1         1 OWU       0.063700
     66 H21         20.3820     7.5560     2.8070 h1         1 OWU       0.070200
     67 H22         19.6030     7.1990     1.2630 h1         1 OWU       0.070200
     68 H23         14.7230     5.9040    -0.7210 h1         1 OWU       0.064700
     69 H24         15.1580     8.2170    -0.1340 h1         1 OWU       0.050700
     70 H25         17.6110     7.9580     6.8690 h1         1 OWU       0.046700
     71 H26         15.3490     7.8320     7.7730 h1         1 OWU       0.056700
     72 H27         15.8390     5.3680     3.2020 hn         1 OWU       0.477000
     73 H28         17.6710     6.1640     3.7060 hn         1 OWU       0.318500
     74 H30         11.4190    14.8580     2.7370 hn         1 OWU       0.484000
     75 H31         13.0170    14.1960     2.8770 hn         1 OWU       0.484000
     76 H32         14.6040     9.4500    -1.9580 ho         1 OWU       0.512000
     77 H33         18.0530    10.0880     7.0280 ho         1 OWU       0.509000
     78 H34         15.1280    10.0590     6.6230 ho         1 OWU       0.511000
     79 N           14.8320     1.1130     7.1740 nv         1 OWU      -0.998900
     80 N7          12.1280    14.2210     2.3850 nv         1 OWU      -1.025900
     81 O4          20.1510     4.8210     2.3330 o          1 OWU      -0.589100
     82 O3          16.9490     5.3140     0.6560 o          1 OWU      -0.534500
     83 O2          15.1770     3.4850     0.6260 o          1 OWU      -0.534500
@<TRIPOS>BOND
     1     1     7 ar  
     2     1    16 ar  
     3     2    10 1   
     4     2    38 1   
     5     2    46 1   
     6     2    47 1   
     7     3     5 1   
     8     3    38 1   
     9     3    48 1   
    10     3    49 1   
    11     4     7 ar  
    12     4    14 ar  
    13     5    18 3   
    14     6    24 1   
    15     6    25 1   
    16     7    50 1   
    17     8    31 1   
    18     8    51 1   
    19     9    15 1   
    20     9    17 1   
    21     9    34 1   
    22     9    52 1   
    23    10    17 1   
    24    10    33 1   
    25    10    53 1   
    26    11    12 2   
    27    11    13 1   
    28    12    15 1   
    29    12    54 1   
    30    13    14 ar  
    31    13    16 ar  
    32    14    15 1   
    33    16    79 1   
    34    18    19 1   
    35    19    35 1   
    36    19    39 2   
    37    20    21 ar  
    38    20    23 ar  
    39    20    39 1   
    40    21    40 ar  
    41    21    80 1   
    42    22    40 ar  
    43    22    41 ar  
    44    22    57 1   
    45    23    35 1   
    46    23    41 ar  
    47    24    32 1   
    48    24    35 1   
    49    24    58 1   
    50    25    26 1   
    51    25    31 1   
    52    25    59 1   
    53    26    36 1   
    54    26    60 1   
    55    26    61 1   
    56    27    28 1   
    57    27    45 1   
    58    27    62 1   
    59    27    63 1   
    60    28    37 1   
    61    28    64 1   
    62    28    65 1   
    63    29    30 1   
    64    29    37 1   
    65    29    81 2   
    66    30    38 1   
    67    30    66 1   
    68    30    67 1   
    69    31    32 1   
    70    31    68 1   
    71    32    42 1   
    72    32    69 1   
    73    33    34 1   
    74    33    43 1   
    75    33    70 1   
    76    34    44 1   
    77    34    71 1   
    78    36    45 1   
    79    36    72 1   
    80    37    73 1   
    81    42    76 1   
    82    43    77 1   
    83    44    78 1   
    84    45    82 2   
    85    45    83 2   
    86    55    79 1   
    87    56    79 1   
    88    74    80 1   
    89    75    80 1   
@<TRIPOS>SUBSTRUCTURE
     1 OWU         1 TEMP              0 ****  ****    0 ROOT
