@<TRIPOS>MOLECULE
OWW
   64    66     1     0     0
SMALL
bcc


@<TRIPOS>ATOM
      1 C18         -9.9180   -28.8750   -35.6570 cg         1 OWW      -0.097000
      2 C19         -9.1440   -29.7800   -35.8380 c1         1 OWW      -0.104100
      3 C17        -10.8360   -27.8170   -35.3910 ca         1 OWW       0.026000
      4 C10        -17.5620   -23.9210   -38.4810 c3         1 OWW       0.033900
      5 C11        -16.4980   -24.4950   -37.5430 c3         1 OWW      -0.093400
      6 C16        -11.7750   -27.4360   -36.3500 ca         1 OWW      -0.057000
      7 C15        -12.6640   -26.3990   -36.0960 ca         1 OWW      -0.156600
      8 C14        -13.6600   -26.0530   -37.1610 c          1 OWW       0.679700
      9 C12        -15.0910   -24.2980   -38.0950 c3         1 OWW       0.103000
     10 C02        -23.7700   -24.5800   -36.8560 c3         1 OWW       0.853700
     11 C06        -21.5540   -23.8400   -36.8960 ca         1 OWW       0.086100
     12 C07        -20.6290   -24.6880   -36.3190 ca         1 OWW      -0.115500
     13 C08        -19.3320   -24.7150   -36.8190 ca         1 OWW      -0.117500
     14 C09        -18.9560   -23.9080   -37.8870 ca         1 OWW      -0.057300
     15 C20         -8.1610   -30.8170   -36.1450 c3         1 OWW       0.196800
     16 C21         -6.7470   -30.4100   -35.7310 c3         1 OWW      -0.115100
     17 C27        -10.8110   -27.1580   -34.1580 ca         1 OWW      -0.082000
     18 C28        -11.7100   -26.1380   -33.8980 ca         1 OWW      -0.141000
     19 C29        -12.6330   -25.7550   -34.8620 ca         1 OWW      -0.103000
     20 C31        -17.5760   -24.6340   -39.8190 ca         1 OWW      -0.086300
     21 C32        -17.9300   -25.9800   -39.9050 ca         1 OWW      -0.117500
     22 C33        -17.9360   -26.6330   -41.1280 ca         1 OWW      -0.125000
     23 C34        -17.5910   -25.9490   -42.2890 ca         1 OWW      -0.123000
     24 C35        -17.2390   -24.6100   -42.2140 ca         1 OWW      -0.125000
     25 C36        -17.2330   -23.9590   -40.9850 ca         1 OWW      -0.117500
     26 C37        -19.9140   -23.0600   -38.4410 ca         1 OWW      -0.117500
     27 C38        -21.2100   -23.0170   -37.9560 ca         1 OWW      -0.115500
     28 F01        -24.9040   -24.3310   -36.2190 f          1 OWW      -0.230967
     29 F03        -23.4700   -25.8700   -36.6860 f          1 OWW      -0.230967
     30 F04        -23.9750   -24.4030   -38.1630 f          1 OWW      -0.230967
     31 N13        -14.0720   -24.7770   -37.1880 ns         1 OWW      -0.573900
     32 N22         -8.5870   -32.1170   -35.6250 n          1 OWW      -0.317300
     33 N25         -8.6210   -33.5930   -33.8400 nt         1 OWW      -0.670000
     34 O23         -8.0130   -33.1630   -36.3250 oh         1 OWW      -0.443100
     35 O26         -8.8440   -31.3610   -33.5070 o          1 OWW      -0.613100
     36 O30        -14.0480   -26.8980   -37.9560 o          1 OWW      -0.597100
     37 H1         -17.2940   -22.8760   -38.6750 hc         1 OWW       0.055700
     38 H2         -16.5710   -23.9990   -36.5710 hc         1 OWW       0.053200
     39 H3         -16.6670   -25.5610   -37.3730 hc         1 OWW       0.053200
     40 H4         -11.8020   -27.9510   -37.3010 ha         1 OWW       0.158000
     41 H5         -14.9810   -24.8070   -39.0520 h1         1 OWW       0.058700
     42 H6         -14.9040   -23.2380   -38.2720 h1         1 OWW       0.058700
     43 H7         -20.8980   -25.3090   -35.4750 ha         1 OWW       0.152000
     44 H8         -18.6200   -25.3820   -36.3510 ha         1 OWW       0.140500
     45 H9          -8.1770   -30.9390   -37.2320 h1         1 OWW       0.072700
     46 H10         -6.0400   -31.1980   -35.9910 hc         1 OWW       0.052700
     47 H11         -6.4500   -29.5080   -36.2640 hc         1 OWW       0.052700
     48 H12         -6.6850   -30.2160   -34.6630 hc         1 OWW       0.052700
     49 H13        -10.0910   -27.4540   -33.4070 ha         1 OWW       0.148000
     50 H14        -11.6980   -25.6420   -32.9370 ha         1 OWW       0.137000
     51 H15        -13.3420   -24.9720   -34.6250 ha         1 OWW       0.127000
     52 H16        -18.2070   -26.5260   -39.0110 ha         1 OWW       0.129000
     53 H17        -18.2130   -27.6780   -41.1790 ha         1 OWW       0.131500
     54 H18        -17.6000   -26.4580   -43.2440 ha         1 OWW       0.131000
     55 H19        -16.9700   -24.0670   -43.1110 ha         1 OWW       0.131500
     56 H20        -16.9570   -22.9120   -40.9340 ha         1 OWW       0.129000
     57 H21        -19.6450   -22.4160   -39.2710 ha         1 OWW       0.140500
     58 H22        -21.9330   -22.3380   -38.3880 ha         1 OWW       0.152000
     59 H23        -13.6750   -24.1140   -36.5440 hn         1 OWW       0.315500
     60 H24         -8.6290   -33.7660   -32.8500 hn         1 OWW       0.323500
     61 H25         -8.3260   -34.3400   -34.4430 hn         1 OWW       0.323500
     62 H26         -8.7080   -33.4890   -36.9100 ho         1 OWW       0.422000
     63 C24         -8.6680   -32.3130   -34.2530 c          1 OWW       0.768100
     64 O05        -22.8370   -23.7600   -36.3610 os         1 OWW      -0.379900
@<TRIPOS>BOND
     1     1     2 3   
     2     1     3 1   
     3     2    15 1   
     4     3     6 ar  
     5     3    17 ar  
     6     4     5 1   
     7     4    14 1   
     8     4    20 1   
     9     4    37 1   
    10     5     9 1   
    11     5    38 1   
    12     5    39 1   
    13     6     7 ar  
    14     6    40 1   
    15     7     8 1   
    16     7    19 ar  
    17     8    31 1   
    18     8    36 2   
    19     9    31 1   
    20     9    41 1   
    21     9    42 1   
    22    10    28 1   
    23    10    29 1   
    24    10    30 1   
    25    10    64 1   
    26    11    12 ar  
    27    11    27 ar  
    28    11    64 1   
    29    12    13 ar  
    30    12    43 1   
    31    13    14 ar  
    32    13    44 1   
    33    14    26 ar  
    34    15    16 1   
    35    15    32 1   
    36    15    45 1   
    37    16    46 1   
    38    16    47 1   
    39    16    48 1   
    40    17    18 ar  
    41    17    49 1   
    42    18    19 ar  
    43    18    50 1   
    44    19    51 1   
    45    20    21 ar  
    46    20    25 ar  
    47    21    22 ar  
    48    21    52 1   
    49    22    23 ar  
    50    22    53 1   
    51    23    24 ar  
    52    23    54 1   
    53    24    25 ar  
    54    24    55 1   
    55    25    56 1   
    56    26    27 ar  
    57    26    57 1   
    58    27    58 1   
    59    31    59 1   
    60    32    34 1   
    61    32    63 1   
    62    33    60 1   
    63    33    61 1   
    64    33    63 1   
    65    34    62 1   
    66    35    63 2   
@<TRIPOS>SUBSTRUCTURE
     1 OWW         1 TEMP              0 ****  ****    0 ROOT
