@<TRIPOS>MOLECULE
OWW
   64    66     1     0     0
SMALL
No Charge or Current Charge


@<TRIPOS>ATOM
      1 C18        -10.2850   -29.2090   -35.7020 cg         1 OWW      -0.097000
      2 C19         -9.7730   -30.3020   -35.8340 c1         1 OWW      -0.104100
      3 C17        -10.8800   -27.9150   -35.5340 ca         1 OWW       0.026000
      4 C10        -17.5830   -23.7500   -38.4720 c3         1 OWW       0.033900
      5 C11        -16.4600   -24.4220   -37.6370 c3         1 OWW      -0.093400
      6 C16        -11.8450   -27.4560   -36.4490 ca         1 OWW      -0.039000
      7 C15        -12.4420   -26.1820   -36.2990 ca         1 OWW      -0.156600
      8 C14        -13.4770   -25.7270   -37.3070 c          1 OWW       0.612700
      9 C12        -15.0550   -23.8690   -37.9550 c3         1 OWW       0.103000
     10 C02        -23.4710   -26.2200   -36.3630 c3         1 OWW       0.513000
     11 C06        -21.6680   -24.7470   -37.2650 ca         1 OWW       0.086100
     12 C07        -20.6430   -25.7100   -37.1290 ca         1 OWW      -0.097500
     13 C08        -19.3250   -25.4000   -37.5110 ca         1 OWW      -0.099500
     14 C09        -19.0050   -24.1270   -38.0310 ca         1 OWW      -0.057300
     15 C20         -9.1320   -31.6230   -35.9520 c3         1 OWW       0.196800
     16 C21         -7.8740   -31.5860   -36.8430 c3         1 OWW      -0.115100
     17 C27        -10.4980   -27.1030   -34.4530 ca         1 OWW      -0.064000
     18 C28        -11.0810   -25.8360   -34.2890 ca         1 OWW      -0.123000
     19 C29        -12.0450   -25.3760   -35.2020 ca         1 OWW      -0.085000
     20 C31        -17.4100   -23.9950   -39.9730 ca         1 OWW      -0.086300
     21 C32        -17.4360   -25.3050   -40.4970 ca         1 OWW      -0.099500
     22 C33        -17.2750   -25.5230   -41.8770 ca         1 OWW      -0.107000
     23 C34        -17.0890   -24.4340   -42.7440 ca         1 OWW      -0.105000
     24 C35        -17.0650   -23.1270   -42.2310 ca         1 OWW      -0.107000
     25 C36        -17.2260   -22.9080   -40.8520 ca         1 OWW      -0.099500
     26 C37        -20.0350   -23.1760   -38.1710 ca         1 OWW      -0.099500
     27 C38        -21.3520   -23.4840   -37.7890 ca         1 OWW      -0.097500
     28 F01        -24.7980   -26.1450   -36.1170 f          1 OWW      -0.109667
     29 F03        -22.8710   -26.5280   -35.1900 f          1 OWW      -0.109667
     30 F04        -23.2870   -27.2570   -37.2120 f          1 OWW      -0.109667
     31 N13        -14.0190   -24.4740   -37.1130 ns         1 OWW      -0.506900
     32 N22         -8.8720   -32.3010   -34.6540 n          1 OWW      -0.250300
     33 N25         -8.1320   -32.4510   -32.4400 nt         1 OWW      -0.603000
     34 O23         -9.3590   -33.6680   -34.5550 oh         1 OWW      -0.482100
     35 O26         -7.8050   -30.5430   -33.5350 o          1 OWW      -0.613100
     36 O30        -13.8180   -26.4280   -38.2500 o          1 OWW      -0.597100
     37 H1         -17.4730   -22.6740   -38.2860 hc         1 OWW       0.055700
     38 H2         -16.6670   -24.2640   -36.5710 hc         1 OWW       0.053200
     39 H3         -16.4560   -25.5040   -37.8050 hc         1 OWW       0.053200
     40 H4         -12.1300   -28.0960   -37.2820 ha         1 OWW       0.140000
     41 H5         -14.8110   -24.0540   -39.0100 h1         1 OWW       0.058700
     42 H6         -15.0430   -22.7830   -37.7940 h1         1 OWW       0.058700
     43 H7         -20.8420   -26.7010   -36.7330 ha         1 OWW       0.134000
     44 H8         -18.5610   -26.1650   -37.4030 ha         1 OWW       0.122500
     45 H9          -9.8580   -32.2480   -36.4890 h1         1 OWW       0.072700
     46 H10         -7.4720   -32.5970   -36.9770 hc         1 OWW       0.052700
     47 H11         -8.1110   -31.1800   -37.8340 hc         1 OWW       0.052700
     48 H12         -7.0930   -30.9630   -36.3910 hc         1 OWW       0.052700
     49 H13         -9.7520   -27.4520   -33.7420 ha         1 OWW       0.130000
     50 H14        -10.7850   -25.2090   -33.4510 ha         1 OWW       0.119000
     51 H15        -12.4740   -24.3900   -35.0410 ha         1 OWW       0.109000
     52 H16        -17.5830   -26.1570   -39.8380 ha         1 OWW       0.111000
     53 H17        -17.2960   -26.5360   -42.2720 ha         1 OWW       0.113500
     54 H18        -16.9650   -24.6030   -43.8120 ha         1 OWW       0.113000
     55 H19        -16.9230   -22.2830   -42.9020 ha         1 OWW       0.113500
     56 H20        -17.2060   -21.8900   -40.4700 ha         1 OWW       0.111000
     57 H21        -19.8160   -22.1920   -38.5810 ha         1 OWW       0.122500
     58 H22        -22.1350   -22.7380   -37.9020 ha         1 OWW       0.134000
     59 H23        -13.6830   -23.9510   -36.3150 hn         1 OWW       0.315500
     60 H24         -7.6850   -32.0810   -31.6160 hn         1 OWW       0.323500
     61 H25         -8.4650   -33.4020   -32.4720 hn         1 OWW       0.323500
     62 H26        -10.2940   -33.5880   -34.2510 ho         1 OWW       0.461000
     63 C24         -8.2440   -31.6800   -33.5390 c          1 OWW       0.634100
     64 O05        -22.9860   -24.9770   -36.9120 os         1 OWW      -0.403100
@<TRIPOS>BOND
     1     1     2 3   
     2     1     3 1   
     3     2    15 1   
     4     3     6 ar  
     5     3    17 ar  
     6     4     5 1   
     7     4    14 1   
     8     4    20 1   
     9     4    37 1   
    10     5     9 1   
    11     5    38 1   
    12     5    39 1   
    13     6     7 ar  
    14     6    40 1   
    15     7     8 1   
    16     7    19 ar  
    17     8    31 1   
    18     8    36 2   
    19     9    31 1   
    20     9    41 1   
    21     9    42 1   
    22    10    28 1   
    23    10    29 1   
    24    10    30 1   
    25    10    64 1   
    26    11    12 ar  
    27    11    27 ar  
    28    11    64 1   
    29    12    13 ar  
    30    12    43 1   
    31    13    14 ar  
    32    13    44 1   
    33    14    26 ar  
    34    15    16 1   
    35    15    32 1   
    36    15    45 1   
    37    16    46 1   
    38    16    47 1   
    39    16    48 1   
    40    17    18 ar  
    41    17    49 1   
    42    18    19 ar  
    43    18    50 1   
    44    19    51 1   
    45    20    21 ar  
    46    20    25 ar  
    47    21    22 ar  
    48    21    52 1   
    49    22    23 ar  
    50    22    53 1   
    51    23    24 ar  
    52    23    54 1   
    53    24    25 ar  
    54    24    55 1   
    55    25    56 1   
    56    26    27 ar  
    57    26    57 1   
    58    27    58 1   
    59    31    59 1   
    60    32    34 1   
    61    32    63 1   
    62    33    60 1   
    63    33    61 1   
    64    33    63 1   
    65    34    62 1   
    66    35    63 2   
@<TRIPOS>SUBSTRUCTURE
     1 OWW         1 TEMP              0 ****  ****    0 ROOT
