@<TRIPOS>MOLECULE
OWX
   37    39     1     0     0
SMALL
abcg2


@<TRIPOS>ATOM
      1 N1           7.1920     2.6400    18.5750 nb         1 OWX      -0.617000
      2 C4          10.4870    -0.3380    23.0300 ca         1 OWX      -0.078300
      3 C5           9.2930     0.4390    23.5350 c3         1 OWX      -0.111100
      4 C6           8.7580     1.3470    22.4330 c          1 OWX       0.604100
      5 C7           7.0870     1.3720    20.5940 ca         1 OWX      -0.041000
      6 C8           7.7860     2.1340    19.6570 ca         1 OWX       0.287900
      7 C10          5.1140     1.6420    19.2660 ca         1 OWX       0.278000
      8 C13          4.9260     0.3050    21.4070 c6         1 OWX      -0.023100
      9 C15         10.3060    -1.5890    22.4420 ca         1 OWX      -0.100000
     10 O            9.2440     2.4500    22.2160 o          1 OWX      -0.572100
     11 C3          11.7720     0.2000    23.1060 ca         1 OWX      -0.087000
     12 C2          12.8600    -0.5030    22.6040 ca         1 OWX      -0.099000
     13 C1          12.6870    -1.7520    22.0170 ca         1 OWX      -0.095000
     14 C           11.4040    -2.2770    21.9480 ca         1 OWX       0.125000
     15 CL          11.1630    -3.8550    21.2210 cl         1 OWX      -0.213000
     16 N            7.7400     0.8070    21.7110 ns         1 OWX      -0.153000
     17 C14          5.7250     1.1150    20.4160 ca         1 OWX      -0.155300
     18 C12          3.4180     0.4850    21.2170 c6         1 OWX      -0.082400
     19 C11          3.0540     0.4130    19.7410 c6         1 OWX       0.210800
     20 N2           3.7680     1.4630    19.0260 nu         1 OWX      -0.946200
     21 C9           5.8990     2.4010    18.3850 ca         1 OWX       0.254900
     22 H1           9.5850     1.0810    24.3650 hc         1 OWX       0.071200
     23 H2           8.5170    -0.2450    23.8790 hc         1 OWX       0.071200
     24 H3           8.8400     2.3300    19.7860 h4         1 OWX       0.044100
     25 H4           5.1840    -0.7550    21.2990 hc         1 OWX       0.044700
     26 H5           5.2090     0.5850    22.4250 hc         1 OWX       0.044700
     27 H6           9.3180    -2.0250    22.3750 ha         1 OWX       0.122000
     28 H7          11.9180     1.1700    23.5630 ha         1 OWX       0.128000
     29 H8          13.8550    -0.0810    22.6700 ha         1 OWX       0.123000
     30 H9          13.5290    -2.3080    21.6280 ha         1 OWX       0.132000
     31 H10          7.3770    -0.0730    22.0430 hn         1 OWX       0.150000
     32 H11          3.1100     1.4570    21.6090 hc         1 OWX       0.055700
     33 H12          2.8780    -0.2820    21.7720 hc         1 OWX       0.055700
     34 H13          1.9850     0.5680    19.5960 h1         1 OWX       0.039700
     35 H14          3.3060    -0.5810    19.3480 h1         1 OWX       0.039700
     36 H15          3.4770     1.6210    18.0730 hn         1 OWX       0.472000
     37 H16          5.4410     2.8180    17.4920 h4         1 OWX       0.018100
@<TRIPOS>BOND
     1     1     6 ar  
     2     1    21 ar  
     3     2     3 1   
     4     2     9 ar  
     5     2    11 ar  
     6     3     4 1   
     7     3    22 1   
     8     3    23 1   
     9     4    10 2   
    10     4    16 1   
    11     5     6 ar  
    12     5    16 1   
    13     5    17 ar  
    14     6    24 1   
    15     7    17 ar  
    16     7    20 1   
    17     7    21 ar  
    18     8    17 1   
    19     8    18 1   
    20     8    25 1   
    21     8    26 1   
    22     9    14 ar  
    23     9    27 1   
    24    11    12 ar  
    25    11    28 1   
    26    12    13 ar  
    27    12    29 1   
    28    13    14 ar  
    29    13    30 1   
    30    14    15 1   
    31    16    31 1   
    32    18    19 1   
    33    18    32 1   
    34    18    33 1   
    35    19    20 1   
    36    19    34 1   
    37    19    35 1   
    38    20    36 1   
    39    21    37 1   
@<TRIPOS>SUBSTRUCTURE
     1 OWX         1 TEMP              0 ****  ****    0 ROOT
