@<TRIPOS>MOLECULE
OWX
   37    39     1     0     0
SMALL
No Charge or Current Charge


@<TRIPOS>ATOM
      1 N1           6.6310     3.5810    18.9160 nb         1 OWX      -0.617000
      2 C4          10.4620    -0.1650    23.0040 ca         1 OWX      -0.078300
      3 C5           9.6200     1.0380    23.4170 c3         1 OWX      -0.111100
      4 C6           9.1370     1.8080    22.1810 c          1 OWX       0.604100
      5 C7           7.0330     1.9750    20.7150 ca         1 OWX      -0.041000
      6 C8           7.3830     3.1130    19.9400 ca         1 OWX       0.287900
      7 C10          5.0390     1.7690    19.3360 ca         1 OWX       0.278000
      8 C13          5.3840     0.0480    21.2110 c6         1 OWX      -0.023100
      9 C15          9.8490    -1.4080    22.7480 ca         1 OWX      -0.100000
     10 O            9.8630     2.6010    21.5920 o          1 OWX      -0.572100
     11 C3          11.8590    -0.0430    22.8650 ca         1 OWX      -0.087000
     12 C2          12.6340    -1.1500    22.4770 ca         1 OWX      -0.099000
     13 C1          12.0160    -2.3870    22.2250 ca         1 OWX      -0.095000
     14 C           10.6240    -2.5130    22.3600 ca         1 OWX       0.125000
     15 Cl           9.8480    -4.0590    22.0420 cl         1 OWX      -0.213000
     16 N            7.8440     1.4950    21.7840 ns         1 OWX      -0.153000
     17 C14          5.8240     1.2960    20.4160 ca         1 OWX      -0.155300
     18 C12          3.8930    -0.3110    20.9880 c6         1 OWX      -0.082400
     19 C11          3.5270    -0.2480    19.4920 c6         1 OWX       0.210800
     20 N2           3.8440     1.1010    18.9990 nu         1 OWX      -0.946200
     21 C9           5.4880     2.9130    18.6260 ca         1 OWX       0.254900
     22 H1          10.2180     1.7120    24.0400 hc         1 OWX       0.071200
     23 H2           8.7560     0.6840    23.9910 hc         1 OWX       0.071200
     24 H3           8.2840     3.6870    20.1410 h4         1 OWX       0.044100
     25 H4           6.0100    -0.8030    20.9120 hc         1 OWX       0.044700
     26 H5           5.5510     0.1940    22.2870 hc         1 OWX       0.044700
     27 H6           8.7720    -1.5210    22.8480 ha         1 OWX       0.122000
     28 H7          12.3460     0.9120    23.0550 ha         1 OWX       0.128000
     29 H8          13.7130    -1.0490    22.3710 ha         1 OWX       0.123000
     30 H9          12.6130    -3.2450    21.9240 ha         1 OWX       0.132000
     31 H10          7.3940     0.7930    22.3570 hn         1 OWX       0.150000
     32 H11          3.2570     0.3890    21.5470 hc         1 OWX       0.055700
     33 H12          3.6820    -1.3120    21.3860 hc         1 OWX       0.055700
     34 H13          2.4620    -0.4820    19.3480 h1         1 OWX       0.039700
     35 H14          4.1150    -1.0020    18.9460 h1         1 OWX       0.039700
     36 H15          3.3290     1.4590    18.1890 hn         1 OWX       0.472000
     37 H16          4.9070     3.3080    17.7930 h4         1 OWX       0.018100
@<TRIPOS>BOND
     1     1     6 ar  
     2     1    21 ar  
     3     2     3 1   
     4     2     9 ar  
     5     2    11 ar  
     6     3     4 1   
     7     3    22 1   
     8     3    23 1   
     9     4    10 2   
    10     4    16 1   
    11     5     6 ar  
    12     5    16 1   
    13     5    17 ar  
    14     6    24 1   
    15     7    17 ar  
    16     7    20 1   
    17     7    21 ar  
    18     8    17 1   
    19     8    18 1   
    20     8    25 1   
    21     8    26 1   
    22     9    14 ar  
    23     9    27 1   
    24    11    12 ar  
    25    11    28 1   
    26    12    13 ar  
    27    12    29 1   
    28    13    14 ar  
    29    13    30 1   
    30    14    15 1   
    31    16    31 1   
    32    18    19 1   
    33    18    32 1   
    34    18    33 1   
    35    19    20 1   
    36    19    34 1   
    37    19    35 1   
    38    20    36 1   
    39    21    37 1   
@<TRIPOS>SUBSTRUCTURE
     1 OWX         1 TEMP              0 ****  ****    0 ROOT
