@<TRIPOS>MOLECULE
OWY
   75    78     1     0     0
SMALL
abcg2


@<TRIPOS>ATOM
      1 CBI          7.9980     2.4000     0.6040 c3         1 OWY      -0.110600
      2 CBG          7.1910     2.1450    -0.6610 c3         1 OWY       0.100000
      3 NBF          5.8030     1.7920    -0.3940 n          1 OWY      -0.405800
      4 CBH          4.8880     2.9100    -0.2010 c3         1 OWY       0.100000
      5 CBJ          4.4560     3.5820    -1.4940 c3         1 OWY      -0.110600
      6 CBD          5.5060     0.5090    -0.1110 c          1 OWY       0.612700
      7 OBE          6.3570    -0.3710    -0.0510 o          1 OWY      -0.595100
      8 CAZ          4.0700     0.1510     0.1130 ca         1 OWY      -0.139600
      9 CBA          3.6980    -0.4470     1.3110 ca         1 OWY      -0.081000
     10 CBB          2.3830    -0.8400     1.5160 ca         1 OWY      -0.104000
     11 CAY          3.1160     0.3130    -0.8880 ca         1 OWY      -0.081000
     12 CAX          1.8110    -0.1050    -0.6880 ca         1 OWY      -0.104000
     13 CAR          1.4270    -0.6800     0.5200 ca         1 OWY      -0.068300
     14 CAP          0.0130    -1.1870     0.7420 c3         1 OWY       0.282100
     15 CAQ         -0.0570    -2.6010     0.1940 ca         1 OWY      -0.041300
     16 CAS         -0.0590    -3.6710     1.0780 ca         1 OWY      -0.201000
     17 CAT         -0.0690    -4.9830     0.6070 ca         1 OWY       0.138100
     18 OBC         -0.0700    -6.0450     1.4390 oh         1 OWY      -0.534100
     19 CAU         -0.0860    -5.2260    -0.7620 ca         1 OWY      -0.141000
     20 CAV         -0.0920    -4.1520    -1.6410 ca         1 OWY      -0.078000
     21 CAW         -0.0740    -2.8450    -1.1770 ca         1 OWY      -0.125000
     22 NAK         -0.9690    -0.3140     0.1260 n3         1 OWY      -0.730600
     23 CAJ         -2.3360    -0.8380     0.1120 c6         1 OWY       0.186500
     24 CAI         -3.1980     0.1070    -0.7160 c6         1 OWY       0.176800
     25 CAO         -2.9490    -1.1090     1.4880 c3         1 OWY      -0.115100
     26 CAL         -0.9330     1.0340     0.6690 c6         1 OWY       0.172800
     27 CAM         -1.7900     1.9810    -0.1610 c6         1 OWY       0.194500
     28 CAN         -1.1570     2.2590    -1.5290 c3         1 OWY      -0.119100
     29 NAH         -3.1470     1.4570    -0.1990 n3         1 OWY      -0.738600
     30 CAG         -4.1080     2.3360    -0.8200 c3         1 OWY       0.225100
     31 CAB         -5.5240     2.0410    -0.3870 ca         1 OWY      -0.088300
     32 CAA         -6.5760     2.1390    -1.2920 ca         1 OWY      -0.099500
     33 CAF         -7.8880     1.9190    -0.8880 ca         1 OWY      -0.114000
     34 CAE         -8.1620     1.5880     0.4310 ca         1 OWY      -0.110000
     35 CAD         -7.1170     1.4790     1.3410 ca         1 OWY      -0.114000
     36 CAC         -5.8090     1.7040     0.9340 ca         1 OWY      -0.099500
     37 H1           9.0140     2.6980     0.3450 hc         1 OWY       0.040700
     38 H2           7.5620     3.2010     1.2030 hc         1 OWY       0.040700
     39 H3           8.0560     1.5050     1.2210 hc         1 OWY       0.040700
     40 H4           7.1890     3.0390    -1.2870 h1         1 OWY       0.051450
     41 H5           7.6540     1.3560    -1.2520 h1         1 OWY       0.051450
     42 H6           4.0160     2.5690     0.3530 h1         1 OWY       0.051450
     43 H7           5.3850     3.6420     0.4420 h1         1 OWY       0.051450
     44 H8           5.3060     3.9740    -2.0530 hc         1 OWY       0.040700
     45 H9           3.9130     2.8960    -2.1440 hc         1 OWY       0.040700
     46 H10          3.7990     4.4210    -1.2680 hc         1 OWY       0.040700
     47 H11          4.4280    -0.5890     2.0980 ha         1 OWY       0.121000
     48 H12          2.0990    -1.2790     2.4650 ha         1 OWY       0.121000
     49 H13          3.3950     0.7520    -1.8370 ha         1 OWY       0.121000
     50 H14          1.0770     0.0260    -1.4720 ha         1 OWY       0.121000
     51 H15         -0.1290    -1.2560     1.8340 h1         1 OWY       0.032700
     52 H16         -0.0520    -3.4850     2.1480 ha         1 OWY       0.109000
     53 H17         -0.0540    -5.7510     2.3560 ho         1 OWY       0.463000
     54 H18         -0.0990    -6.2440    -1.1320 ha         1 OWY       0.129000
     55 H19         -0.1110    -4.3410    -2.7070 ha         1 OWY       0.115000
     56 H20         -0.0900    -2.0200    -1.8770 ha         1 OWY       0.126000
     57 H22         -2.3200    -1.7850    -0.4320 h1         1 OWY       0.065700
     58 H23         -2.8810     0.0510    -1.7700 h1         1 OWY       0.040700
     59 H24         -4.2310    -0.2460    -0.6810 h1         1 OWY       0.040700
     60 H25         -3.0440    -0.2070     2.0900 hc         1 OWY       0.038700
     61 H26         -3.9500    -1.5240     1.3650 hc         1 OWY       0.038700
     62 H27         -2.3650    -1.8370     2.0540 hc         1 OWY       0.038700
     63 H28         -1.2670     1.0670     1.7180 h1         1 OWY       0.040700
     64 H29          0.0930     1.4030     0.6620 h1         1 OWY       0.040700
     65 H30         -1.8310     2.9300     0.3850 h1         1 OWY       0.052700
     66 H31         -1.0430     1.3520    -2.1220 hc         1 OWY       0.038367
     67 H32         -1.7490     2.9690    -2.1070 hc         1 OWY       0.038367
     68 H33         -0.1640     2.6920    -1.3980 hc         1 OWY       0.038367
     69 H35         -3.8640     3.3630    -0.5250 h1         1 OWY       0.037700
     70 H36         -4.0610     2.3190    -1.9210 h1         1 OWY       0.037700
     71 H37         -6.3690     2.3860    -2.3280 ha         1 OWY       0.117000
     72 H38         -8.6930     2.0000    -1.6070 ha         1 OWY       0.111000
     73 H39         -9.1820     1.4130     0.7490 ha         1 OWY       0.111000
     74 H40         -7.3220     1.2170     2.3710 ha         1 OWY       0.111000
     75 H41         -4.9950     1.6090     1.6410 ha         1 OWY       0.117000
@<TRIPOS>BOND
     1     1     2 1   
     2     1    37 1   
     3     1    38 1   
     4     1    39 1   
     5     2     3 1   
     6     2    40 1   
     7     2    41 1   
     8     3     4 1   
     9     3     6 1   
    10     4     5 1   
    11     4    42 1   
    12     4    43 1   
    13     5    44 1   
    14     5    45 1   
    15     5    46 1   
    16     6     7 2   
    17     6     8 1   
    18     8     9 ar  
    19     8    11 ar  
    20     9    10 ar  
    21     9    47 1   
    22    10    13 ar  
    23    10    48 1   
    24    11    12 ar  
    25    11    49 1   
    26    12    13 ar  
    27    12    50 1   
    28    13    14 1   
    29    14    15 1   
    30    14    22 1   
    31    14    51 1   
    32    15    16 ar  
    33    15    21 ar  
    34    16    17 ar  
    35    16    52 1   
    36    17    18 1   
    37    17    19 ar  
    38    18    53 1   
    39    19    20 ar  
    40    19    54 1   
    41    20    21 ar  
    42    20    55 1   
    43    21    56 1   
    44    22    23 1   
    45    22    26 1   
    46    23    24 1   
    47    23    25 1   
    48    23    57 1   
    49    24    29 1   
    50    24    58 1   
    51    24    59 1   
    52    25    60 1   
    53    25    61 1   
    54    25    62 1   
    55    26    27 1   
    56    26    63 1   
    57    26    64 1   
    58    27    28 1   
    59    27    29 1   
    60    27    65 1   
    61    28    66 1   
    62    28    67 1   
    63    28    68 1   
    64    29    30 1   
    65    30    31 1   
    66    30    69 1   
    67    30    70 1   
    68    31    32 ar  
    69    31    36 ar  
    70    32    33 ar  
    71    32    71 1   
    72    33    34 ar  
    73    33    72 1   
    74    34    35 ar  
    75    34    73 1   
    76    35    36 ar  
    77    35    74 1   
    78    36    75 1   
@<TRIPOS>SUBSTRUCTURE
     1 OWY         1 TEMP              0 ****  ****    0 ROOT
