@<TRIPOS>MOLECULE
OWY
   75    78     1     0     0
SMALL
No Charge or Current Charge


@<TRIPOS>ATOM
      1 CBI          8.1160     2.8460     0.0850 c3         1 OWY      -0.110600
      2 CBG          7.3370     1.8940    -0.8460 c3         1 OWY       0.100000
      3 NBF          5.9160     1.6810    -0.4580 n          1 OWY      -0.405800
      4 CBH          5.0420     2.8890    -0.4220 c3         1 OWY       0.100000
      5 CBJ          5.0700     3.7510    -1.7010 c3         1 OWY      -0.110600
      6 CBD          5.5970     0.5700     0.3650 c          1 OWY       0.612700
      7 OBE          6.4760    -0.0710     0.9310 o          1 OWY      -0.595100
      8 CAZ          4.1550     0.1130     0.4430 ca         1 OWY      -0.139600
      9 CBA          3.6890    -0.5380     1.6050 ca         1 OWY      -0.081000
     10 CBB          2.3600    -0.9890     1.6910 ca         1 OWY      -0.104000
     11 CAY          3.2710     0.2590    -0.6500 ca         1 OWY      -0.081000
     12 CAX          1.9440    -0.1930    -0.5630 ca         1 OWY      -0.104000
     13 CAR          1.4720    -0.8140     0.6120 ca         1 OWY      -0.068300
     14 CAP          0.0250    -1.3120     0.7220 c3         1 OWY       0.282100
     15 CAQ         -0.0740    -2.7140     0.1020 ca         1 OWY      -0.041300
     16 CAS         -0.1570    -3.8520     0.9330 ca         1 OWY      -0.201000
     17 CAT         -0.2440    -5.1360     0.3710 ca         1 OWY       0.138100
     18 OBC         -0.3250    -6.2300     1.1790 oh         1 OWY      -0.534100
     19 CAU         -0.2490    -5.2980    -1.0220 ca         1 OWY      -0.141000
     20 CAV         -0.1650    -4.1730    -1.8590 ca         1 OWY      -0.078000
     21 CAW         -0.0770    -2.8880    -1.2980 ca         1 OWY      -0.125000
     22 NAK         -0.9720    -0.3430     0.1770 n3         1 OWY      -0.730600
     23 CAJ         -2.3950    -0.8360     0.1350 c6         1 OWY       0.186500
     24 CAI         -3.3350     0.2100    -0.5610 c6         1 OWY       0.176800
     25 CAO         -2.9680    -1.2340     1.5310 c3         1 OWY      -0.115100
     26 CAL         -0.9030     1.0160     0.8130 c6         1 OWY       0.172800
     27 CAM         -1.8390     2.0640     0.1140 c6         1 OWY       0.194500
     28 CAN         -1.2600     2.4620    -1.2790 c3         1 OWY      -0.119100
     29 NAH         -3.2560     1.5700     0.0650 n3         1 OWY      -0.738600
     30 CAG         -4.2300     2.5420    -0.4880 c3         1 OWY       0.225100
     31 CAB         -5.6820     2.1340    -0.2510 ca         1 OWY      -0.088300
     32 CAA         -6.5210     1.8120    -1.3380 ca         1 OWY      -0.099500
     33 CAF         -7.8570     1.4340    -1.1140 ca         1 OWY      -0.114000
     34 CAE         -8.3620     1.3750     0.1960 ca         1 OWY      -0.110000
     35 CAD         -7.5310     1.6940     1.2820 ca         1 OWY      -0.114000
     36 CAC         -6.1950     2.0720     1.0590 ca         1 OWY      -0.099500
     37 H1           9.1640     2.9080    -0.2310 hc         1 OWY       0.040700
     38 H2           7.6960     3.8580     0.0630 hc         1 OWY       0.040700
     39 H3           8.0920     2.4800     1.1190 hc         1 OWY       0.040700
     40 H4           7.3720     2.2890    -1.8690 h1         1 OWY       0.051450
     41 H5           7.8560     0.9270    -0.8760 h1         1 OWY       0.051450
     42 H6           4.0020     2.6110    -0.2230 h1         1 OWY       0.051450
     43 H7           5.3540     3.5140     0.4250 h1         1 OWY       0.051450
     44 H8           6.0570     4.1980    -1.8630 hc         1 OWY       0.040700
     45 H9           4.8090     3.1470    -2.5770 hc         1 OWY       0.040700
     46 H10          4.3430     4.5680    -1.6190 hc         1 OWY       0.040700
     47 H11          4.3560    -0.6860     2.4520 ha         1 OWY       0.121000
     48 H12          2.0210    -1.4780     2.6010 ha         1 OWY       0.121000
     49 H13          3.6120     0.7150    -1.5780 ha         1 OWY       0.121000
     50 H14          1.2770    -0.0590    -1.4110 ha         1 OWY       0.121000
     51 H15         -0.1810    -1.4220     1.7960 h1         1 OWY       0.032700
     52 H16         -0.1520    -3.7300     2.0130 ha         1 OWY       0.109000
     53 H17         -0.3060    -5.9270     2.1110 ho         1 OWY       0.463000
     54 H18         -0.3170    -6.2930    -1.4530 ha         1 OWY       0.129000
     55 H19         -0.1700    -4.2960    -2.9400 ha         1 OWY       0.115000
     56 H20         -0.0190    -2.0210    -1.9530 ha         1 OWY       0.126000
     57 H22         -2.4460    -1.7440    -0.4820 h1         1 OWY       0.065700
     58 H23         -3.0670     0.2670    -1.6260 h1         1 OWY       0.040700
     59 H24         -4.3650    -0.1720    -0.5230 h1         1 OWY       0.040700
     60 H25         -2.9870    -0.3880     2.2270 hc         1 OWY       0.038700
     61 H26         -3.9980    -1.5980     1.4350 hc         1 OWY       0.038700
     62 H27         -2.3890    -2.0400     1.9940 hc         1 OWY       0.038700
     63 H28         -1.1790     0.9520     1.8750 h1         1 OWY       0.040700
     64 H29          0.1240     1.4090     0.7890 h1         1 OWY       0.040700
     65 H30         -1.8060     2.9750     0.7300 h1         1 OWY       0.052700
     66 H31         -1.2430     1.6160    -1.9750 hc         1 OWY       0.038367
     67 H32         -1.8350     3.2710    -1.7420 hc         1 OWY       0.038367
     68 H33         -0.2290     2.8200    -1.1800 hc         1 OWY       0.038367
     69 H35         -4.0770     3.5250    -0.0220 h1         1 OWY       0.037700
     70 H36         -4.0670     2.6710    -1.5660 h1         1 OWY       0.037700
     71 H37         -6.1380     1.8520    -2.3550 ha         1 OWY       0.117000
     72 H38         -8.4990     1.1860    -1.9560 ha         1 OWY       0.111000
     73 H39         -9.3960     1.0820     0.3680 ha         1 OWY       0.111000
     74 H40         -7.9200     1.6470     2.2970 ha         1 OWY       0.111000
     75 H41         -5.5540     2.3130     1.9040 ha         1 OWY       0.117000
@<TRIPOS>BOND
     1     1     2 1   
     2     1    37 1   
     3     1    38 1   
     4     1    39 1   
     5     2     3 1   
     6     2    40 1   
     7     2    41 1   
     8     3     4 1   
     9     3     6 1   
    10     4     5 1   
    11     4    42 1   
    12     4    43 1   
    13     5    44 1   
    14     5    45 1   
    15     5    46 1   
    16     6     7 2   
    17     6     8 1   
    18     8     9 ar  
    19     8    11 ar  
    20     9    10 ar  
    21     9    47 1   
    22    10    13 ar  
    23    10    48 1   
    24    11    12 ar  
    25    11    49 1   
    26    12    13 ar  
    27    12    50 1   
    28    13    14 1   
    29    14    15 1   
    30    14    22 1   
    31    14    51 1   
    32    15    16 ar  
    33    15    21 ar  
    34    16    17 ar  
    35    16    52 1   
    36    17    18 1   
    37    17    19 ar  
    38    18    53 1   
    39    19    20 ar  
    40    19    54 1   
    41    20    21 ar  
    42    20    55 1   
    43    21    56 1   
    44    22    23 1   
    45    22    26 1   
    46    23    24 1   
    47    23    25 1   
    48    23    57 1   
    49    24    29 1   
    50    24    58 1   
    51    24    59 1   
    52    25    60 1   
    53    25    61 1   
    54    25    62 1   
    55    26    27 1   
    56    26    63 1   
    57    26    64 1   
    58    27    28 1   
    59    27    29 1   
    60    27    65 1   
    61    28    66 1   
    62    28    67 1   
    63    28    68 1   
    64    29    30 1   
    65    30    31 1   
    66    30    69 1   
    67    30    70 1   
    68    31    32 ar  
    69    31    36 ar  
    70    32    33 ar  
    71    32    71 1   
    72    33    34 ar  
    73    33    72 1   
    74    34    35 ar  
    75    34    73 1   
    76    35    36 ar  
    77    35    74 1   
    78    36    75 1   
@<TRIPOS>SUBSTRUCTURE
     1 OWY         1 TEMP              0 ****  ****    0 ROOT
