@<TRIPOS>MOLECULE
OWZ
   28    29     1     0     0
SMALL
No Charge or Current Charge


@<TRIPOS>ATOM
      1 C10        -19.0920    -8.9700    14.3920 ca         1 OWZ      -0.106000
      2 C01        -22.2520   -16.5010    14.5220 c3         1 OWZ      -0.089100
      3 C02        -21.3360   -15.2900    14.8240 c6         1 OWZ       0.127500
      4 C04        -21.3660   -12.8960    15.4440 c6         1 OWZ       0.123800
      5 C05        -20.4530   -12.5820    14.2150 c6         1 OWZ       0.175600
      6 C06        -19.5370   -11.3750    14.4800 ca         1 OWZ      -0.068300
      7 C07        -18.2860   -11.5600    15.1110 ca         1 OWZ      -0.077000
      8 C08        -17.4450   -10.4640    15.3700 ca         1 OWZ      -0.112000
      9 C09        -17.8460    -9.1680    15.0090 ca         1 OWZ      -0.099000
     10 C11        -19.9370   -10.0630    14.1310 ca         1 OWZ       0.125000
     11 C14        -20.4340   -14.9220    13.6020 c6         1 OWZ       0.122600
     12 N03        -22.1810   -14.1360    15.2450 n7         1 OWZ      -0.846400
     13 O13        -19.6470   -13.7440    13.8930 os         1 OWZ      -0.451000
     14 Cl1        -21.5010    -9.7430    13.3780 cl         1 OWZ      -0.215000
     15 H1         -19.4080    -7.9660    14.1190 ha         1 OWZ       0.129000
     16 H3         -22.9370   -16.2900    13.6910 hc         1 OWZ       0.041367
     17 H4         -21.6580   -17.3810    14.2490 hc         1 OWZ       0.041367
     18 H5         -20.6750   -15.5700    15.6590 h1         1 OWZ       0.072700
     19 H6         -20.7300   -13.0170    16.3340 h1         1 OWZ       0.068200
     20 H7         -22.0300   -12.0400    15.6340 h1         1 OWZ       0.068200
     21 H8         -21.0890   -12.3740    13.3440 h1         1 OWZ       0.050700
     22 H9         -17.9620   -12.5570    15.4040 ha         1 OWZ       0.133000
     23 H10        -16.4830   -10.6200    15.8530 ha         1 OWZ       0.118000
     24 H11        -17.1960    -8.3190    15.2100 ha         1 OWZ       0.118000
     25 H12        -21.0530   -14.7330    12.7130 h1         1 OWZ       0.049700
     26 H13        -19.7560   -15.7570    13.3730 h1         1 OWZ       0.049700
     27 H14        -22.8640   -13.9540    14.4990 hn         1 OWZ       0.406000
     28 H2         -22.8560   -16.7690    15.3970 hc         1 OWZ       0.041367
@<TRIPOS>BOND
     1     1     9 ar  
     2     1    10 ar  
     3     1    15 1   
     4     2     3 1   
     5     2    16 1   
     6     2    17 1   
     7     2    28 1   
     8     3    11 1   
     9     3    12 1   
    10     3    18 1   
    11     4     5 1   
    12     4    12 1   
    13     4    19 1   
    14     4    20 1   
    15     5     6 1   
    16     5    13 1   
    17     5    21 1   
    18     6     7 ar  
    19     6    10 ar  
    20     7     8 ar  
    21     7    22 1   
    22     8     9 ar  
    23     8    23 1   
    24     9    24 1   
    25    10    14 1   
    26    11    13 1   
    27    11    25 1   
    28    11    26 1   
    29    12    27 1   
@<TRIPOS>SUBSTRUCTURE
     1 OWZ         1 TEMP              0 ****  ****    0 ROOT
