@<TRIPOS>MOLECULE
OWZ
   28    29     1     0     0
SMALL
bcc


@<TRIPOS>ATOM
      1 C10        -19.1530    -9.0290    14.5250 ca         1 OWZ      -0.124000
      2 C01        -22.2000   -16.4290    14.5570 c3         1 OWZ      -0.089100
      3 C02        -21.3430   -15.2110    14.8500 c6         1 OWZ       0.127500
      4 C04        -21.3930   -12.8540    15.3280 c6         1 OWZ       0.123800
      5 C05        -20.4400   -12.6040    14.1520 c6         1 OWZ       0.152400
      6 C06        -19.5430   -11.4290    14.4320 ca         1 OWZ      -0.068300
      7 C07        -18.2720   -11.6150    14.9730 ca         1 OWZ      -0.095000
      8 C08        -17.4520   -10.5410    15.2810 ca         1 OWZ      -0.130000
      9 C09        -17.8900    -9.2440    15.0550 ca         1 OWZ      -0.117000
     10 C11        -19.9610   -10.1160    14.2260 ca         1 OWZ       0.033400
     11 C14        -20.4030   -14.9070    13.6900 c6         1 OWZ       0.099400
     12 N03        -22.1810   -14.0610    15.1680 n7         1 OWZ      -0.791200
     13 O13        -19.6380   -13.7410    13.9270 os         1 OWZ      -0.404600
     14 CL1        -21.5420    -9.7900    13.5750 cl         1 OWZ      -0.123400
     15 H1         -19.5090    -8.0240    14.3470 ha         1 OWZ       0.147000
     16 H3         -22.8190   -16.2740    13.6700 hc         1 OWZ       0.041367
     17 H4         -21.5830   -17.3110    14.3840 hc         1 OWZ       0.041367
     18 H5         -20.7290   -15.4160    15.7360 h1         1 OWZ       0.072700
     19 H6         -20.8020   -12.9360    16.2470 h1         1 OWZ       0.068200
     20 H7         -22.0650   -12.0030    15.4520 h1         1 OWZ       0.068200
     21 H8         -21.0450   -12.4020    13.2540 h1         1 OWZ       0.050700
     22 H9         -17.9180   -12.6200    15.1550 ha         1 OWZ       0.151000
     23 H10        -16.4700   -10.7200    15.6990 ha         1 OWZ       0.136000
     24 H11        -17.2570    -8.3990    15.2880 ha         1 OWZ       0.136000
     25 H12        -20.9910   -14.7970    12.7660 h1         1 OWZ       0.049700
     26 H13        -19.6910   -15.7210    13.5370 h1         1 OWZ       0.049700
     27 H14        -22.8570   -13.9250    14.4230 hn         1 OWZ       0.350800
     28 H2         -22.8630   -16.6410    15.3960 hc         1 OWZ       0.041367
@<TRIPOS>BOND
     1     1     9 ar  
     2     1    10 ar  
     3     1    15 1   
     4     2     3 1   
     5     2    16 1   
     6     2    17 1   
     7     2    28 1   
     8     3    11 1   
     9     3    12 1   
    10     3    18 1   
    11     4     5 1   
    12     4    12 1   
    13     4    19 1   
    14     4    20 1   
    15     5     6 1   
    16     5    13 1   
    17     5    21 1   
    18     6     7 ar  
    19     6    10 ar  
    20     7     8 ar  
    21     7    22 1   
    22     8     9 ar  
    23     8    23 1   
    24     9    24 1   
    25    10    14 1   
    26    11    13 1   
    27    11    25 1   
    28    11    26 1   
    29    12    27 1   
@<TRIPOS>SUBSTRUCTURE
     1 OWZ         1 TEMP              0 ****  ****    0 ROOT
