@<TRIPOS>MOLECULE
OX0
   54    58     1     0     0
SMALL
No Charge or Current Charge


@<TRIPOS>ATOM
      1 C10          4.9080    32.1680    33.1030 c6         1 OX0       0.236000
      2 C03          1.0720    33.8460    35.2750 ca         1 OX0       0.021000
      3 C04          1.2010    33.2140    36.5250 ca         1 OX0      -0.083000
      4 C06          2.2490    31.2960    35.4500 ca         1 OX0      -0.097000
      5 C07          2.1220    31.9220    34.1940 ca         1 OX0      -0.094300
      6 C08          2.6270    31.2330    32.9290 c3         1 OX0       0.218100
      7 C01         -0.0230    36.2530    35.1040 c1         1 OX0      -0.228000
      8 C05          1.7890    31.9400    36.6110 ca         1 OX0      -0.113000
      9 C11          6.0200    32.8910    32.3710 cc         1 OX0      -0.295400
     10 C12          7.0600    33.4610    33.2520 c          1 OX0       0.594200
     11 C14          9.1520    34.7780    33.4340 c3         1 OX0       0.153300
     12 C15          8.7700    36.1720    33.9220 ca         1 OX0      -0.085300
     13 C16          8.2350    36.3540    35.2140 ca         1 OX0      -0.089500
     14 C17          7.8770    37.6380    35.6590 ca         1 OX0      -0.100000
     15 C18          8.0530    38.7480    34.8170 ca         1 OX0       0.123000
     16 C20          8.5880    38.5760    33.5300 ca         1 OX0      -0.100000
     17 C21          8.9460    37.2910    33.0840 ca         1 OX0      -0.089500
     18 C22          8.0970    34.2140    31.2440 cc         1 OX0       0.664800
     19 C24          8.6920    34.6980    29.0980 c5         1 OX0       0.104800
     20 C25          7.3790    33.8800    29.0690 c5         1 OX0       0.192800
     21 C28          6.0420    32.9630    30.9910 cd         1 OX0       0.217800
     22 C29          4.9530    32.3570    30.1340 c6         1 OX0      -0.045200
     23 C30          4.0670    31.3890    30.9390 c6         1 OX0       0.171800
     24 C31          1.5320    33.1990    34.1130 ca         1 OX0      -0.063000
     25 N09          3.7050    31.9850    32.2450 n3         1 OX0      -0.724600
     26 N13          8.0950    34.1380    32.6110 n          1 OX0      -0.329300
     27 N23          9.0310    34.8200    30.5660 n2         1 OX0      -0.666900
     28 N26          7.1320    33.6540    30.4670 na         1 OX0      -0.663400
     29 O27          7.0260    33.3460    34.4710 o          1 OX0      -0.537000
     30 Cl19         7.6040    40.3550    35.3740 cl         1 OX0      -0.219000
     31 H102         4.6280    32.7320    34.0060 h1         1 OX0       0.057200
     32 H101         5.2770    31.1900    33.4480 h1         1 OX0       0.057200
     33 H041         0.8480    33.7080    37.4280 ha         1 OX0       0.120000
     34 H061         2.7050    30.3110    35.5270 ha         1 OX0       0.111000
     35 H082         1.7710    31.1140    32.2500 h1         1 OX0       0.039700
     36 H081         2.9750    30.2220    33.1800 h1         1 OX0       0.039700
     37 H011        -0.4570    37.2310    35.0350 ha         1 OX0       0.257000
     38 H051         1.8890    31.4530    37.5790 ha         1 OX0       0.117000
     39 H142         9.3790    34.1390    34.2980 h1         1 OX0       0.082700
     40 H141        10.0860    34.8420    32.8620 h1         1 OX0       0.082700
     41 H161         8.0920    35.5000    35.8730 ha         1 OX0       0.118500
     42 H171         7.4620    37.7740    36.6550 ha         1 OX0       0.128500
     43 H201         8.7240    39.4360    32.8800 ha         1 OX0       0.128500
     44 H211         9.3600    37.1680    32.0850 ha         1 OX0       0.118500
     45 H241         9.4950    34.1820    28.5530 h1         1 OX0       0.067700
     46 H242         8.5530    35.6890    28.6460 h1         1 OX0       0.067700
     47 H251         6.5590    34.4450    28.6060 h1         1 OX0       0.058700
     48 H252         7.5060    32.9320    28.5290 h1         1 OX0       0.058700
     49 H291         4.3260    33.1590    29.7250 hc         1 OX0       0.066200
     50 H292         5.3780    31.8240    29.2740 hc         1 OX0       0.066200
     51 H301         3.1680    31.1630    30.3470 h1         1 OX0       0.039700
     52 H302         4.6060    30.4420    31.0890 h1         1 OX0       0.039700
     53 H311         1.4390    33.6880    33.1460 ha         1 OX0       0.129000
     54 C02          0.4760    35.1480    35.1850 cg         1 OX0      -0.125000
@<TRIPOS>BOND
     1     1     9 1   
     2     1    25 1   
     3     1    31 1   
     4     1    32 1   
     5     2     3 ar  
     6     2    24 ar  
     7     2    54 1   
     8     3     8 ar  
     9     3    33 1   
    10     4     5 ar  
    11     4     8 ar  
    12     4    34 1   
    13     5     6 1   
    14     5    24 ar  
    15     6    25 1   
    16     6    35 1   
    17     6    36 1   
    18     7    37 1   
    19     7    54 3   
    20     8    38 1   
    21     9    10 1   
    22     9    21 2   
    23    10    26 1   
    24    10    29 2   
    25    11    12 1   
    26    11    26 1   
    27    11    39 1   
    28    11    40 1   
    29    12    13 ar  
    30    12    17 ar  
    31    13    14 ar  
    32    13    41 1   
    33    14    15 ar  
    34    14    42 1   
    35    15    16 ar  
    36    15    30 1   
    37    16    17 ar  
    38    16    43 1   
    39    17    44 1   
    40    18    26 1   
    41    18    27 2   
    42    18    28 1   
    43    19    20 1   
    44    19    27 1   
    45    19    45 1   
    46    19    46 1   
    47    20    28 1   
    48    20    47 1   
    49    20    48 1   
    50    21    22 1   
    51    21    28 1   
    52    22    23 1   
    53    22    49 1   
    54    22    50 1   
    55    23    25 1   
    56    23    51 1   
    57    23    52 1   
    58    24    53 1   
@<TRIPOS>SUBSTRUCTURE
     1 OX0         1 TEMP              0 ****  ****    0 ROOT
