@<TRIPOS>MOLECULE
OX0
   54    58     1     0     0
SMALL
abcg2


@<TRIPOS>ATOM
      1 C10          4.9150    32.0120    33.2000 c6         1 OX0       0.236000
      2 C03          1.1620    33.6400    35.3930 ca         1 OX0       0.021000
      3 C04          1.1620    32.9350    36.6060 ca         1 OX0      -0.083000
      4 C06          2.1560    31.0400    35.4970 ca         1 OX0      -0.097000
      5 C07          2.1630    31.7260    34.2840 ca         1 OX0      -0.094300
      6 C08          2.6970    31.0810    33.0280 c3         1 OX0       0.218100
      7 C01          0.2460    36.1040    35.2860 c1         1 OX0      -0.228000
      8 C05          1.6560    31.6410    36.6500 ca         1 OX0      -0.113000
      9 C11          5.9840    32.8060    32.5070 cc         1 OX0      -0.295400
     10 C12          7.0370    33.3720    33.3100 c          1 OX0       0.594200
     11 C14          9.0750    34.7760    33.3870 c3         1 OX0       0.153300
     12 C15          8.8260    36.2320    33.7050 ca         1 OX0      -0.085300
     13 C16          7.5450    36.7760    33.7400 ca         1 OX0      -0.089500
     14 C17          7.3430    38.1100    34.0730 ca         1 OX0      -0.100000
     15 C18          8.4400    38.9030    34.3760 ca         1 OX0       0.123000
     16 C20          9.7290    38.3880    34.3480 ca         1 OX0      -0.100000
     17 C21          9.9110    37.0530    34.0090 ca         1 OX0      -0.089500
     18 C22          7.9420    34.3750    31.2790 cc         1 OX0       0.664800
     19 C24          8.3140    35.0410    29.1980 c5         1 OX0       0.104800
     20 C25          7.0430    34.1510    29.1600 c5         1 OX0       0.192800
     21 C28          5.9550    33.0120    31.1620 cd         1 OX0       0.217800
     22 C29          4.8810    32.4380    30.2950 c6         1 OX0      -0.045200
     23 C30          4.0510    31.4050    31.0470 c6         1 OX0       0.171800
     24 C31          1.6630    33.0240    34.2410 ca         1 OX0      -0.063000
     25 N09          3.7160    31.9000    32.3770 n3         1 OX0      -0.724600
     26 N13          7.9980    34.1450    32.6340 n          1 OX0      -0.329300
     27 N23          8.7570    35.0980    30.6040 n2         1 OX0      -0.666900
     28 N26          6.9160    33.7710    30.5740 na         1 OX0      -0.663400
     29 O27          7.1270    33.2230    34.5300 o          1 OX0      -0.537000
     30 CL19         8.1950    40.5880    34.7950 cl         1 OX0      -0.219000
     31 H102         4.6570    32.5030    34.1390 h1         1 OX0       0.057200
     32 H101         5.2990    31.0100    33.4690 h1         1 OX0       0.057200
     33 H041         0.7770    33.4080    37.5000 ha         1 OX0       0.120000
     34 H061         2.5510    30.0320    35.5410 ha         1 OX0       0.111000
     35 H082         1.8800    30.9490    32.3140 h1         1 OX0       0.039700
     36 H081         3.0800    30.0770    33.2700 h1         1 OX0       0.039700
     37 H011        -0.1250    37.1020    35.2390 ha         1 OX0       0.257000
     38 H051         1.6600    31.0980    37.5870 ha         1 OX0       0.117000
     39 H142         9.1810    34.2090    34.3100 h1         1 OX0       0.082700
     40 H141         9.9930    34.6760    32.8120 h1         1 OX0       0.082700
     41 H161         6.6860    36.1630    33.4980 ha         1 OX0       0.118500
     42 H171         6.3450    38.5270    34.0950 ha         1 OX0       0.128500
     43 H201        10.5750    39.0190    34.5800 ha         1 OX0       0.128500
     44 H211        10.9160    36.6490    33.9770 ha         1 OX0       0.118500
     45 H241         9.1080    34.6250    28.5750 h1         1 OX0       0.067700
     46 H242         8.1040    36.0480    28.8340 h1         1 OX0       0.067700
     47 H251         6.1550    34.6920    28.8330 h1         1 OX0       0.058700
     48 H252         7.1650    33.2650    28.5390 h1         1 OX0       0.058700
     49 H291         4.2450    33.2570    29.9440 hc         1 OX0       0.066200
     50 H292         5.3270    31.9850    29.4070 hc         1 OX0       0.066200
     51 H301         3.1280    31.2120    30.4990 h1         1 OX0       0.039700
     52 H302         4.6050    30.4540    31.1040 h1         1 OX0       0.039700
     53 H311         1.6740    33.5700    33.3070 ha         1 OX0       0.129000
     54 C02          0.6580    34.9740    35.3340 cg         1 OX0      -0.125000
@<TRIPOS>BOND
     1     1     9 1   
     2     1    25 1   
     3     1    31 1   
     4     1    32 1   
     5     2     3 ar  
     6     2    24 ar  
     7     2    54 1   
     8     3     8 ar  
     9     3    33 1   
    10     4     5 ar  
    11     4     8 ar  
    12     4    34 1   
    13     5     6 1   
    14     5    24 ar  
    15     6    25 1   
    16     6    35 1   
    17     6    36 1   
    18     7    37 1   
    19     7    54 3   
    20     8    38 1   
    21     9    10 1   
    22     9    21 2   
    23    10    26 1   
    24    10    29 2   
    25    11    12 1   
    26    11    26 1   
    27    11    39 1   
    28    11    40 1   
    29    12    13 ar  
    30    12    17 ar  
    31    13    14 ar  
    32    13    41 1   
    33    14    15 ar  
    34    14    42 1   
    35    15    16 ar  
    36    15    30 1   
    37    16    17 ar  
    38    16    43 1   
    39    17    44 1   
    40    18    26 1   
    41    18    27 2   
    42    18    28 1   
    43    19    20 1   
    44    19    27 1   
    45    19    45 1   
    46    19    46 1   
    47    20    28 1   
    48    20    47 1   
    49    20    48 1   
    50    21    22 1   
    51    21    28 1   
    52    22    23 1   
    53    22    49 1   
    54    22    50 1   
    55    23    25 1   
    56    23    51 1   
    57    23    52 1   
    58    24    53 1   
@<TRIPOS>SUBSTRUCTURE
     1 OX0         1 TEMP              0 ****  ****    0 ROOT
