@<TRIPOS>MOLECULE
OX1
   37    40     1     0     0
SMALL
abcg2


@<TRIPOS>ATOM
      1 C1           6.9130    91.9700   -38.7370 ca         1 OX1      -0.070000
      2 C2           4.5080    93.3980   -38.8830 ca         1 OX1      -0.097500
      3 C3           6.1510    92.1750   -37.5990 ca         1 OX1      -0.073300
      4 C4           6.4760    92.4950   -39.9550 ca         1 OX1      -0.114000
      5 C5           5.2820    93.2020   -40.0280 ca         1 OX1      -0.120500
      6 C6           4.9510    92.8930   -37.6720 ca         1 OX1      -0.095300
      7 C7           6.4470    91.6760   -36.1970 c6         1 OX1       0.231600
      8 C8           4.2520    92.9990   -36.3320 c6         1 OX1       0.238600
      9 C9           7.6360    90.7380   -36.0750 c3         1 OX1      -0.045400
     10 O1           5.2790    90.8530   -35.8160 os         1 OX1      -0.208000
     11 C10          2.8720    93.6140   -36.3520 c3         1 OX1      -0.075100
     12 O2           4.0210    91.6100   -35.8910 os         1 OX1      -0.255000
     13 C11          6.4350    92.8830   -35.2790 ca         1 OX1      -0.073300
     14 C12          6.0680    95.1600   -33.7290 ca         1 OX1      -0.120500
     15 C13          7.4570    93.3180   -34.4500 ca         1 OX1      -0.070000
     16 C14          5.2320    93.5960   -35.3450 ca         1 OX1      -0.095300
     17 C15          5.0400    94.7260   -34.5670 ca         1 OX1      -0.097500
     18 C16          7.2700    94.4650   -33.6770 ca         1 OX1      -0.114000
     19 C17          7.7430    89.9910   -34.7490 c3         1 OX1      -0.206400
     20 C18          9.0920    89.2780   -34.5210 c          1 OX1       0.708000
     21 O3           9.0960    88.3850   -33.6330 o          1 OX1      -0.741500
     22 O4          10.0840    89.6480   -35.1990 o          1 OX1      -0.741500
     23 H1           7.8410    91.4170   -38.6900 ha         1 OX1       0.142500
     24 H4           3.5780    93.9480   -38.9470 ha         1 OX1       0.104000
     25 H2           7.0730    92.3490   -40.8460 ha         1 OX1       0.108500
     26 H3           4.9490    93.6050   -40.9760 ha         1 OX1       0.100500
     27 H12          7.5890    90.0150   -36.8920 hc         1 OX1       0.058200
     28 H13          8.5400    91.3260   -36.2380 hc         1 OX1       0.058200
     29 H5           2.4310    93.5910   -35.3560 hc         1 OX1       0.046033
     30 H6           2.9350    94.6520   -36.6790 hc         1 OX1       0.046033
     31 H7           2.2250    93.0720   -37.0400 hc         1 OX1       0.046033
     32 H9           5.9290    96.0480   -33.1250 ha         1 OX1       0.100500
     33 H11          8.3980    92.7870   -34.4040 ha         1 OX1       0.142500
     34 H8           4.1100    95.2770   -34.6130 ha         1 OX1       0.104000
     35 H10          8.0690    94.8130   -33.0340 ha         1 OX1       0.108500
     36 H14          7.6070    90.6750   -33.9070 hc         1 OX1       0.034700
     37 H15          6.9490    89.2500   -34.6610 hc         1 OX1       0.034700
@<TRIPOS>BOND
     1     1     3 ar  
     2     1     4 ar  
     3     1    23 1   
     4     2     5 ar  
     5     2     6 ar  
     6     2    24 1   
     7     3     6 ar  
     8     3     7 1   
     9     4     5 ar  
    10     4    25 1   
    11     5    26 1   
    12     6     8 1   
    13     7     9 1   
    14     7    10 1   
    15     7    13 1   
    16     8    11 1   
    17     8    12 1   
    18     8    16 1   
    19     9    19 1   
    20     9    27 1   
    21     9    28 1   
    22    10    12 1   
    23    11    29 1   
    24    11    30 1   
    25    11    31 1   
    26    13    15 ar  
    27    13    16 ar  
    28    14    17 ar  
    29    14    18 ar  
    30    14    32 1   
    31    15    18 ar  
    32    15    33 1   
    33    16    17 ar  
    34    17    34 1   
    35    18    35 1   
    36    19    20 1   
    37    19    36 1   
    38    19    37 1   
    39    20    21 1   
    40    20    22 1   
@<TRIPOS>SUBSTRUCTURE
     1 OX1         1 TEMP              0 ****  ****    0 ROOT
