@<TRIPOS>MOLECULE
OX1
   37    40     1     0     0
SMALL
No Charge or Current Charge


@<TRIPOS>ATOM
      1 C1           6.8910    91.8840   -38.7090 ca         1 OX1      -0.070000
      2 C2           4.4740    93.3430   -38.8990 ca         1 OX1      -0.097500
      3 C3           6.0990    92.0990   -37.5620 ca         1 OX1      -0.073300
      4 C4           6.4630    92.3940   -39.9490 ca         1 OX1      -0.114000
      5 C5           5.2600    93.1190   -40.0440 ca         1 OX1      -0.120500
      6 C6           4.8990    92.8310   -37.6580 ca         1 OX1      -0.095300
      7 C7           6.4190    91.6210   -36.1280 c6         1 OX1       0.231600
      8 C8           4.1730    93.0080   -36.3080 c6         1 OX1       0.238600
      9 C9           7.6770    90.6980   -35.9970 c3         1 OX1      -0.045400
     10 O1           5.2510    90.8430   -35.7260 os         1 OX1      -0.208000
     11 C10          2.8020    93.7310   -36.3780 c3         1 OX1      -0.075100
     12 O2           3.9380    91.6570   -35.8250 os         1 OX1      -0.255000
     13 C11          6.3960    92.8850   -35.2360 ca         1 OX1      -0.073300
     14 C12          6.0680    95.2570   -33.7610 ca         1 OX1      -0.120500
     15 C13          7.4510    93.3590   -34.4280 ca         1 OX1      -0.070000
     16 C14          5.1950    93.6140   -35.3250 ca         1 OX1      -0.095300
     17 C15          5.0240    94.8020   -34.5850 ca         1 OX1      -0.097500
     18 C16          7.2780    94.5420   -33.6870 ca         1 OX1      -0.114000
     19 C17          7.8380    89.9340   -34.6490 c3         1 OX1      -0.206400
     20 C18          9.1970    89.2200   -34.6120 c          1 OX1       0.708000
     21 O3           9.2690    88.0950   -35.0800 o          1 OX1      -0.741500
     22 O4          10.1560    89.8340   -34.1720 o          1 OX1      -0.741500
     23 H1           7.8280    91.3360   -38.6540 ha         1 OX1       0.142500
     24 H4           3.5530    93.9130   -38.9870 ha         1 OX1       0.104000
     25 H2           7.0680    92.2310   -40.8380 ha         1 OX1       0.108500
     26 H3           4.9390    93.5110   -41.0060 ha         1 OX1       0.100500
     27 H12          7.6480    89.9420   -36.7910 hc         1 OX1       0.058200
     28 H13          8.5790    91.2920   -36.1850 hc         1 OX1       0.058200
     29 H5           2.3260    93.7710   -35.3910 hc         1 OX1       0.046033
     30 H6           2.9130    94.7600   -36.7390 hc         1 OX1       0.046033
     31 H7           2.1150    93.2100   -37.0550 hc         1 OX1       0.046033
     32 H9           5.9450    96.1730   -33.1880 ha         1 OX1       0.100500
     33 H11          8.4000    92.8310   -34.3710 ha         1 OX1       0.142500
     34 H8           4.1030    95.3750   -34.6470 ha         1 OX1       0.104000
     35 H10          8.0860    94.9090   -33.0580 ha         1 OX1       0.108500
     36 H14          7.7810    90.6770   -33.8470 hc         1 OX1       0.034700
     37 H15          7.0260    89.1980   -34.6190 hc         1 OX1       0.034700
@<TRIPOS>BOND
     1     1     3 ar  
     2     1     4 ar  
     3     1    23 1   
     4     2     5 ar  
     5     2     6 ar  
     6     2    24 1   
     7     3     6 ar  
     8     3     7 1   
     9     4     5 ar  
    10     4    25 1   
    11     5    26 1   
    12     6     8 1   
    13     7     9 1   
    14     7    10 1   
    15     7    13 1   
    16     8    11 1   
    17     8    12 1   
    18     8    16 1   
    19     9    19 1   
    20     9    27 1   
    21     9    28 1   
    22    10    12 1   
    23    11    29 1   
    24    11    30 1   
    25    11    31 1   
    26    13    15 ar  
    27    13    16 ar  
    28    14    17 ar  
    29    14    18 ar  
    30    14    32 1   
    31    15    18 ar  
    32    15    33 1   
    33    16    17 ar  
    34    17    34 1   
    35    18    35 1   
    36    19    20 1   
    37    19    36 1   
    38    19    37 1   
    39    20    21 1   
    40    20    22 1   
@<TRIPOS>SUBSTRUCTURE
     1 OX1         1 TEMP              0 ****  ****    0 ROOT
