@<TRIPOS>MOLECULE
OX3
   35    36     1     0     0
SMALL
bcc


@<TRIPOS>ATOM
      1 C1          -1.0670     6.3360     3.4480 ca         1 OX3       0.161100
      2 O1          -0.7590     7.3720     4.2420 oh         1 OX3      -0.488100
      3 C2          -2.3730     6.0400     3.0680 ca         1 OX3      -0.205500
      4 C3          -2.6200     4.9540     2.2460 ca         1 OX3      -0.052500
      5 C4          -1.5820     4.1450     1.7870 ca         1 OX3      -0.193900
      6 C5          -0.2740     4.4540     2.1760 ca         1 OX3      -0.052500
      7 C6          -0.0160     5.5330     2.9940 ca         1 OX3      -0.205500
      8 C7          -1.9050     3.0160     0.9290 ce         1 OX3       0.438800
      9 N8          -0.9990     2.2310     0.5040 n2         1 OX3      -0.394200
     10 O9          -1.5620     1.2480    -0.2930 os         1 OX3      -0.231600
     11 C10         -0.6930     0.3220    -0.7440 c          1 OX3       0.653100
     12 O10          0.4830     0.3410    -0.5090 o          1 OX3      -0.485000
     13 C11         -1.4310    -0.7210    -1.5430 c6         1 OX3      -0.128700
     14 C12         -2.2700    -1.6120    -0.6090 c6         1 OX3      -0.066400
     15 C13         -3.0360    -2.6580    -1.4110 c6         1 OX3      -0.074900
     16 C14         -2.1030    -3.4960    -2.2790 c6         1 OX3      -0.076400
     17 C15         -1.2570    -2.6090    -3.1860 c6         1 OX3      -0.074900
     18 C16         -0.4810    -1.5690    -2.3850 c6         1 OX3      -0.066400
     19 HO1         -1.5540     7.8580     4.4910 ho         1 OX3       0.429000
     20 H2          -3.1970     6.6550     3.4120 ha         1 OX3       0.143000
     21 H3          -3.6410     4.7340     1.9580 ha         1 OX3       0.144500
     22 H5           0.5510     3.8420     1.8350 ha         1 OX3       0.144500
     23 H6           1.0000     5.7650     3.2880 ha         1 OX3       0.143000
     24 H7          -2.9540     2.8740     0.6710 h4         1 OX3       0.007800
     25 H11         -2.1240    -0.1980    -2.2130 hc         1 OX3       0.072700
     26 H121        -2.9660    -1.0060    -0.0260 hc         1 OX3       0.052450
     27 H122        -1.6050    -2.1100     0.1040 hc         1 OX3       0.052450
     28 H131        -3.7720    -2.1560    -2.0470 hc         1 OX3       0.041200
     29 H132        -3.6000    -3.2990    -0.7290 hc         1 OX3       0.041200
     30 H141        -1.4440    -4.0880    -1.6350 hc         1 OX3       0.041700
     31 H142        -2.6790    -4.2080    -2.8740 hc         1 OX3       0.041700
     32 H151        -0.5620    -3.2180    -3.7690 hc         1 OX3       0.041200
     33 H152        -1.9070    -2.1030    -3.9080 hc         1 OX3       0.041200
     34 H161         0.2360    -2.0750    -1.7310 hc         1 OX3       0.052450
     35 H162         0.0990    -0.9320    -3.0570 hc         1 OX3       0.052450
@<TRIPOS>BOND
     1     1     2 1   
     2     1     3 ar  
     3     1     7 ar  
     4     2    19 1   
     5     3     4 ar  
     6     3    20 1   
     7     4     5 ar  
     8     4    21 1   
     9     5     6 ar  
    10     5     8 1   
    11     6     7 ar  
    12     6    22 1   
    13     7    23 1   
    14     8     9 2   
    15     8    24 1   
    16     9    10 1   
    17    10    11 1   
    18    11    12 2   
    19    11    13 1   
    20    13    14 1   
    21    13    18 1   
    22    13    25 1   
    23    14    15 1   
    24    14    26 1   
    25    14    27 1   
    26    15    16 1   
    27    15    28 1   
    28    15    29 1   
    29    16    17 1   
    30    16    30 1   
    31    16    31 1   
    32    17    18 1   
    33    17    32 1   
    34    17    33 1   
    35    18    34 1   
    36    18    35 1   
@<TRIPOS>SUBSTRUCTURE
     1 OX3         1 TEMP              0 ****  ****    0 ROOT
