@<TRIPOS>MOLECULE
OX3
   35    36     1     0     0
SMALL
No Charge or Current Charge


@<TRIPOS>ATOM
      1 C1          -0.9230     6.5690     3.4340 ca         1 OX3       0.161100
      2 O1          -0.5940     7.6270     4.2260 oh         1 OX3      -0.527100
      3 C2          -2.1020     6.5910     2.6740 ca         1 OX3      -0.187500
      4 C3          -2.4350     5.4950     1.8590 ca         1 OX3      -0.034500
      5 C4          -1.5890     4.3680     1.7970 ca         1 OX3      -0.193900
      6 C5          -0.4030     4.3550     2.5660 ca         1 OX3      -0.034500
      7 C6          -0.0770     5.4540     3.3800 ca         1 OX3      -0.187500
      8 C7          -1.9700     3.2170     0.9200 ce         1 OX3       0.438800
      9 N8          -1.2330     2.1530     0.8230 n2         1 OX3      -0.295700
     10 O9          -1.7570     1.1630    -0.0600 os         1 OX3      -0.330100
     11 C10         -1.0040     0.0110    -0.1950 c          1 OX3       0.604100
     12 O10          0.0550    -0.1960     0.3870 o          1 OX3      -0.436000
     13 C11         -1.6220    -1.0200    -1.1620 c6         1 OX3      -0.128700
     14 C12         -2.0740    -2.3310    -0.4630 c6         1 OX3      -0.066400
     15 C13         -2.7670    -3.2870    -1.4660 c6         1 OX3      -0.074900
     16 C14         -1.8750    -3.5500    -2.7070 c6         1 OX3      -0.076400
     17 C15         -1.4890    -2.2260    -3.4140 c6         1 OX3      -0.074900
     18 C16         -0.7750    -1.2530    -2.4420 c6         1 OX3      -0.066400
     19 HO1         -1.2950     8.3080     4.1390 ho         1 OX3       0.468000
     20 H2          -2.7650     7.4520     2.7100 ha         1 OX3       0.125000
     21 H3          -3.3530     5.5240     1.2730 ha         1 OX3       0.126500
     22 H5           0.2690     3.4990     2.5390 ha         1 OX3       0.126500
     23 H6           0.8370     5.4380     3.9690 ha         1 OX3       0.125000
     24 H7          -2.9040     3.3130     0.3600 h4         1 OX3       0.007800
     25 H11         -2.5480    -0.5410    -1.5080 hc         1 OX3       0.072700
     26 H121        -2.7580    -2.1020     0.3660 hc         1 OX3       0.052450
     27 H122        -1.2030    -2.8330    -0.0200 hc         1 OX3       0.052450
     28 H131        -3.7260    -2.8560    -1.7870 hc         1 OX3       0.041200
     29 H132        -3.0050    -4.2380    -0.9700 hc         1 OX3       0.041200
     30 H141        -0.9660    -4.0870    -2.4020 hc         1 OX3       0.041700
     31 H142        -2.4040    -4.2070    -3.4110 hc         1 OX3       0.041700
     32 H151        -0.8370    -2.4390    -4.2730 hc         1 OX3       0.041200
     33 H152        -2.3920    -1.7480    -3.8200 hc         1 OX3       0.041200
     34 H161         0.2060    -1.6630    -2.1670 hc         1 OX3       0.052450
     35 H162        -0.5830    -0.2960    -2.9490 hc         1 OX3       0.052450
@<TRIPOS>BOND
     1     1     2 1   
     2     1     3 ar  
     3     1     7 ar  
     4     2    19 1   
     5     3     4 ar  
     6     3    20 1   
     7     4     5 ar  
     8     4    21 1   
     9     5     6 ar  
    10     5     8 1   
    11     6     7 ar  
    12     6    22 1   
    13     7    23 1   
    14     8     9 2   
    15     8    24 1   
    16     9    10 1   
    17    10    11 1   
    18    11    12 2   
    19    11    13 1   
    20    13    14 1   
    21    13    18 1   
    22    13    25 1   
    23    14    15 1   
    24    14    26 1   
    25    14    27 1   
    26    15    16 1   
    27    15    28 1   
    28    15    29 1   
    29    16    17 1   
    30    16    30 1   
    31    16    31 1   
    32    17    18 1   
    33    17    32 1   
    34    17    33 1   
    35    18    34 1   
    36    18    35 1   
@<TRIPOS>SUBSTRUCTURE
     1 OX3         1 TEMP              0 ****  ****    0 ROOT
