@<TRIPOS>MOLECULE
OX4
   35    36     1     0     0
SMALL
No Charge or Current Charge


@<TRIPOS>ATOM
      1 O1          -0.4600     7.7090     4.0800 oh         1 OX4      -0.520100
      2 C1          -0.8090     6.6400     3.3010 ca         1 OX4       0.133100
      3 C2          -1.9920     6.6600     2.5360 ca         1 OX4       0.059000
      4 F2          -2.8010     7.7450     2.5630 f          1 OX4      -0.185000
      5 C3          -2.3410     5.5570     1.7400 ca         1 OX4      -0.082000
      6 C4          -1.5100     4.4160     1.6970 ca         1 OX4      -0.166900
      7 C5          -0.3240     4.4020     2.4680 ca         1 OX4      -0.039000
      8 C6           0.0210     5.5100     3.2640 ca         1 OX4      -0.139000
      9 C7          -1.9050     3.2540     0.8410 ce         1 OX4       0.433800
     10 N8          -1.1800     2.1800     0.7630 n2         1 OX4      -0.291700
     11 O9          -1.7150     1.1810    -0.1020 os         1 OX4      -0.328100
     12 C10         -0.9750     0.0180    -0.2150 c          1 OX4       0.604100
     13 O10          0.0820    -0.1890     0.3700 o          1 OX4      -0.433000
     14 C11         -1.6040    -1.0230    -1.1640 c6         1 OX4      -0.128700
     15 C12         -2.0690    -2.3170    -0.4430 c6         1 OX4      -0.066400
     16 C13         -2.7730    -3.2830    -1.4280 c6         1 OX4      -0.074900
     17 C14         -1.8850    -3.5770    -2.6640 c6         1 OX4      -0.076400
     18 C15         -1.4850    -2.2690    -3.3950 c6         1 OX4      -0.074900
     19 C16         -0.7610    -1.2870    -2.4410 c6         1 OX4      -0.066400
     20 HO1         -1.1550     8.3960     3.9780 ho         1 OX4       0.482000
     21 H3          -3.2590     5.5920     1.1560 ha         1 OX4       0.133000
     22 H5           0.3370     3.5370     2.4550 ha         1 OX4       0.145000
     23 H6           0.9350     5.4900     3.8530 ha         1 OX4       0.138000
     24 H7          -2.8370     3.3510     0.2790 h4         1 OX4       0.010800
     25 H11         -2.5260    -0.5400    -1.5180 hc         1 OX4       0.073700
     26 H121        -2.7500    -2.0660     0.3830 hc         1 OX4       0.052700
     27 H122        -1.2030    -2.8200     0.0090 hc         1 OX4       0.052700
     28 H131        -3.7280    -2.8480    -1.7550 hc         1 OX4       0.041700
     29 H132        -3.0200    -4.2230    -0.9150 hc         1 OX4       0.041700
     30 H141        -0.9810    -4.1170    -2.3510 hc         1 OX4       0.042200
     31 H142        -2.4200    -4.2400    -3.3570 hc         1 OX4       0.042200
     32 H151        -0.8370    -2.5040    -4.2500 hc         1 OX4       0.041700
     33 H152        -2.3830    -1.7890    -3.8090 hc         1 OX4       0.041700
     34 H161         0.2170    -1.7020    -2.1590 hc         1 OX4       0.052700
     35 H162        -0.5590    -0.3410    -2.9640 hc         1 OX4       0.052700
@<TRIPOS>BOND
     1     1     2 1   
     2     1    20 1   
     3     2     3 ar  
     4     2     8 ar  
     5     3     4 1   
     6     3     5 ar  
     7     5     6 ar  
     8     5    21 1   
     9     6     7 ar  
    10     6     9 1   
    11     7     8 ar  
    12     7    22 1   
    13     8    23 1   
    14     9    10 2   
    15     9    24 1   
    16    10    11 1   
    17    11    12 1   
    18    12    13 2   
    19    12    14 1   
    20    14    15 1   
    21    14    19 1   
    22    14    25 1   
    23    15    16 1   
    24    15    26 1   
    25    15    27 1   
    26    16    17 1   
    27    16    28 1   
    28    16    29 1   
    29    17    18 1   
    30    17    30 1   
    31    17    31 1   
    32    18    19 1   
    33    18    32 1   
    34    18    33 1   
    35    19    34 1   
    36    19    35 1   
@<TRIPOS>SUBSTRUCTURE
     1 OX4         1 TEMP              0 ****  ****    0 ROOT
