@<TRIPOS>MOLECULE
OX4
   35    36     1     0     0
SMALL
bcc


@<TRIPOS>ATOM
      1 O1          -0.6230     7.4500     4.1060 oh         1 OX4      -0.481100
      2 C1          -0.9330     6.4100     3.3240 ca         1 OX4       0.133100
      3 C2          -2.2280     6.1410     2.8920 ca         1 OX4       0.023900
      4 F2          -3.2080     6.9770     3.2830 f          1 OX4      -0.149900
      5 C3          -2.5270     5.0650     2.0910 ca         1 OX4      -0.100000
      6 C4          -1.5080     4.2030     1.6880 ca         1 OX4      -0.166900
      7 C5          -0.2010     4.4590     2.1090 ca         1 OX4      -0.057000
      8 C6           0.0810     5.5450     2.9130 ca         1 OX4      -0.157000
      9 C7          -1.8590     3.0680     0.8440 ce         1 OX4       0.433800
     10 N8          -0.9720     2.2410     0.4650 n2         1 OX4      -0.390200
     11 O9          -1.5410     1.2590    -0.3240 os         1 OX4      -0.229600
     12 C10         -0.6800     0.3100    -0.7480 c          1 OX4       0.653100
     13 O10          0.4910     0.3150    -0.4960 o          1 OX4      -0.482000
     14 C11         -1.4240    -0.7340    -1.5390 c6         1 OX4      -0.128700
     15 C12         -2.2550    -1.6210    -0.5940 c6         1 OX4      -0.066400
     16 C13         -3.0250    -2.6730    -1.3860 c6         1 OX4      -0.074900
     17 C14         -2.0970    -3.5130    -2.2560 c6         1 OX4      -0.076400
     18 C15         -1.2580    -2.6300    -3.1740 c6         1 OX4      -0.074900
     19 C16         -0.4780    -1.5850    -2.3830 c6         1 OX4      -0.066400
     20 HO1         -1.4020     7.9760     4.3240 ho         1 OX4       0.443000
     21 H3          -3.5530     4.8990     1.7840 ha         1 OX4       0.151000
     22 H5           0.6040     3.8040     1.8060 ha         1 OX4       0.163000
     23 H6           1.0960     5.7370     3.2360 ha         1 OX4       0.156000
     24 H7          -2.9050     2.9640     0.5580 h4         1 OX4       0.010800
     25 H11         -2.1230    -0.2150    -2.2050 hc         1 OX4       0.073700
     26 H121        -2.9480    -1.0130    -0.0100 hc         1 OX4       0.052700
     27 H122        -1.5840    -2.1150     0.1170 hc         1 OX4       0.052700
     28 H131        -3.7650    -2.1740    -2.0200 hc         1 OX4       0.041700
     29 H132        -3.5830    -3.3110    -0.6980 hc         1 OX4       0.041700
     30 H141        -1.4320    -4.1010    -1.6130 hc         1 OX4       0.042200
     31 H142        -2.6750    -4.2290    -2.8440 hc         1 OX4       0.042200
     32 H151        -0.5650    -3.2400    -3.7580 hc         1 OX4       0.041700
     33 H152        -1.9130    -2.1280    -3.8940 hc         1 OX4       0.041700
     34 H161         0.2440    -2.0860    -1.7310 hc         1 OX4       0.052700
     35 H162         0.0960    -0.9500    -3.0620 hc         1 OX4       0.052700
@<TRIPOS>BOND
     1     1     2 1   
     2     1    20 1   
     3     2     3 ar  
     4     2     8 ar  
     5     3     4 1   
     6     3     5 ar  
     7     5     6 ar  
     8     5    21 1   
     9     6     7 ar  
    10     6     9 1   
    11     7     8 ar  
    12     7    22 1   
    13     8    23 1   
    14     9    10 2   
    15     9    24 1   
    16    10    11 1   
    17    11    12 1   
    18    12    13 2   
    19    12    14 1   
    20    14    15 1   
    21    14    19 1   
    22    14    25 1   
    23    15    16 1   
    24    15    26 1   
    25    15    27 1   
    26    16    17 1   
    27    16    28 1   
    28    16    29 1   
    29    17    18 1   
    30    17    30 1   
    31    17    31 1   
    32    18    19 1   
    33    18    32 1   
    34    18    33 1   
    35    19    34 1   
    36    19    35 1   
@<TRIPOS>SUBSTRUCTURE
     1 OX4         1 TEMP              0 ****  ****    0 ROOT
