@<TRIPOS>MOLECULE
OX5
   34    34     1     0     0
SMALL
abcg2


@<TRIPOS>ATOM
      1 O1          -7.8090     8.3760    -2.5610 oh         1 OX5      -0.527100
      2 C1          -6.6430     7.7130    -2.5600 ca         1 OX5       0.161100
      3 C2          -5.4140     8.3480    -2.3970 ca         1 OX5      -0.187500
      4 C3          -4.2490     7.6010    -2.4050 ca         1 OX5      -0.034500
      5 C4          -4.2790     6.2180    -2.5760 ca         1 OX5      -0.193900
      6 C5          -5.5210     5.5930    -2.7390 ca         1 OX5      -0.034500
      7 C6          -6.6880     6.3260    -2.7320 ca         1 OX5      -0.187500
      8 C7          -3.0230     5.4840    -2.5840 ce         1 OX5       0.438800
      9 N8          -3.0050     4.2220    -2.7320 n2         1 OX5      -0.298700
     10 O9          -1.7000     3.7580    -2.7290 os         1 OX5      -0.327100
     11 C10         -1.5880     2.4170    -2.8140 c          1 OX5       0.605100
     12 C8          -0.1420     2.0080    -2.8110 c3         1 OX5      -0.140400
     13 C9           0.2620     2.6390    -0.3900 c3         1 OX5      -0.087767
     14 C11         -0.3580     0.2830    -0.9590 c3         1 OX5      -0.087767
     15 C12          0.3840     1.5310    -1.4370 c3         1 OX5      -0.036000
     16 C13          1.8630     1.1880    -1.6300 c3         1 OX5      -0.087767
     17 O2          -2.5280     1.6740    -2.8780 o          1 OX5      -0.439000
     18 HO1         -7.6640     9.3220    -2.4420 ho         1 OX5       0.468000
     19 H2          -5.3650     9.4220    -2.2660 ha         1 OX5       0.125000
     20 H3          -3.3000     8.1060    -2.2750 ha         1 OX5       0.126500
     21 H7          -2.1080     6.0640    -2.4620 h4         1 OX5       0.007800
     22 H81          0.4790     2.8360    -3.1580 hc         1 OX5       0.071200
     23 H82         -0.0350     1.1920    -3.5290 hc         1 OX5       0.071200
     24 H91          0.7260     2.3220     0.5460 hc         1 OX5       0.038144
     25 H92          0.7620     3.5530    -0.7150 hc         1 OX5       0.038144
     26 H93         -0.7770     2.8870    -0.1650 hc         1 OX5       0.038144
     27 H111        -1.4070     0.4820    -0.7390 hc         1 OX5       0.038144
     28 H112         0.1020    -0.0960    -0.0440 hc         1 OX5       0.038144
     29 H113        -0.3190    -0.5130    -1.7060 hc         1 OX5       0.038144
     30 H131         2.3060     0.8480    -0.6920 hc         1 OX5       0.038144
     31 H132         2.4320     2.0550    -1.9710 hc         1 OX5       0.038144
     32 H133         1.9940     0.3930    -2.3680 hc         1 OX5       0.038144
     33 H5          -5.5730     4.5210    -2.8730 ha         1 OX5       0.126500
     34 H6          -7.6430     5.8330    -2.8620 ha         1 OX5       0.125000
@<TRIPOS>BOND
     1     1     2 1   
     2     1    18 1   
     3     2     3 ar  
     4     2     7 ar  
     5     3     4 ar  
     6     3    19 1   
     7     4     5 ar  
     8     4    20 1   
     9     5     6 ar  
    10     5     8 1   
    11     6     7 ar  
    12     6    33 1   
    13     7    34 1   
    14     8     9 2   
    15     8    21 1   
    16     9    10 1   
    17    10    11 1   
    18    11    12 1   
    19    11    17 2   
    20    12    15 1   
    21    12    22 1   
    22    12    23 1   
    23    13    15 1   
    24    13    24 1   
    25    13    25 1   
    26    13    26 1   
    27    14    15 1   
    28    14    27 1   
    29    14    28 1   
    30    14    29 1   
    31    15    16 1   
    32    16    30 1   
    33    16    31 1   
    34    16    32 1   
@<TRIPOS>SUBSTRUCTURE
     1 OX5         1 TEMP              0 ****  ****    0 ROOT
