@<TRIPOS>MOLECULE
OX5
   34    34     1     0     0
SMALL
No Charge or Current Charge


@<TRIPOS>ATOM
      1 O1          -7.9290     8.4430    -2.5140 oh         1 OX5      -0.527100
      2 C1          -6.7540     7.7540    -2.5400 ca         1 OX5       0.161100
      3 C2          -5.5320     8.4330    -2.4260 ca         1 OX5      -0.187500
      4 C3          -4.3230     7.7150    -2.4530 ca         1 OX5      -0.034500
      5 C4          -4.3280     6.3120    -2.5950 ca         1 OX5      -0.193900
      6 C5          -5.5650     5.6370    -2.7100 ca         1 OX5      -0.034500
      7 C6          -6.7700     6.3610    -2.6820 ca         1 OX5      -0.187500
      8 C7          -3.0260     5.5750    -2.6210 ce         1 OX5       0.438800
      9 N8          -2.9670     4.2850    -2.7480 n2         1 OX5      -0.298700
     10 O9          -1.6410     3.7630    -2.7450 os         1 OX5      -0.327100
     11 C10         -1.5320     2.3900    -2.8670 c          1 OX5       0.605100
     12 C8          -0.0640     1.9330    -2.8440 c3         1 OX5      -0.140400
     13 C9           0.3000     2.6050    -0.3960 c3         1 OX5      -0.087767
     14 C11         -0.3390     0.2210    -0.9550 c3         1 OX5      -0.087767
     15 C12          0.4470     1.4680    -1.4410 c3         1 OX5      -0.036000
     16 C13          1.9470     1.0920    -1.5630 c3         1 OX5      -0.087767
     17 O2          -2.4780     1.6200    -2.9940 o          1 OX5      -0.439000
     18 HO1         -7.7260     9.3970    -2.4100 ho         1 OX5       0.468000
     19 H2          -5.5090     9.5140    -2.3150 ha         1 OX5       0.125000
     20 H3          -3.3800     8.2530    -2.3630 ha         1 OX5       0.126500
     21 H7          -2.1190     6.1770    -2.5240 h4         1 OX5       0.007800
     22 H81          0.5600     2.7800    -3.1530 hc         1 OX5       0.071200
     23 H82          0.0520     1.1090    -3.5580 hc         1 OX5       0.071200
     24 H91          0.7240     2.3050     0.5700 hc         1 OX5       0.038144
     25 H92          0.8220     3.5120    -0.7250 hc         1 OX5       0.038144
     26 H93         -0.7540     2.8620    -0.2280 hc         1 OX5       0.038144
     27 H111        -1.3960     0.4550    -0.7830 hc         1 OX5       0.038144
     28 H112         0.0720    -0.1560    -0.0110 hc         1 OX5       0.038144
     29 H113        -0.2860    -0.5900    -1.6920 hc         1 OX5       0.038144
     30 H131         2.3490     0.7550    -0.5990 hc         1 OX5       0.038144
     31 H132         2.5430     1.9530    -1.8920 hc         1 OX5       0.038144
     32 H133         2.0930     0.2830    -2.2890 hc         1 OX5       0.038144
     33 H5          -5.6010     4.5550    -2.8210 ha         1 OX5       0.126500
     34 H6          -7.7180     5.8360    -2.7700 ha         1 OX5       0.125000
@<TRIPOS>BOND
     1     1     2 1   
     2     1    18 1   
     3     2     3 ar  
     4     2     7 ar  
     5     3     4 ar  
     6     3    19 1   
     7     4     5 ar  
     8     4    20 1   
     9     5     6 ar  
    10     5     8 1   
    11     6     7 ar  
    12     6    33 1   
    13     7    34 1   
    14     8     9 2   
    15     8    21 1   
    16     9    10 1   
    17    10    11 1   
    18    11    12 1   
    19    11    17 2   
    20    12    15 1   
    21    12    22 1   
    22    12    23 1   
    23    13    15 1   
    24    13    24 1   
    25    13    25 1   
    26    13    26 1   
    27    14    15 1   
    28    14    27 1   
    29    14    28 1   
    30    14    29 1   
    31    15    16 1   
    32    16    30 1   
    33    16    31 1   
    34    16    32 1   
@<TRIPOS>SUBSTRUCTURE
     1 OX5         1 TEMP              0 ****  ****    0 ROOT
