@<TRIPOS>MOLECULE
OX6
   36    36     1     0     0
SMALL
No Charge or Current Charge


@<TRIPOS>ATOM
      1 C1          -3.1210    -1.3970    -1.7050 cc         1 OX6       0.407900
      2 O12          1.2640     0.1270    -1.5880 o          1 OX6      -0.546000
      3 O9           2.3760    -0.2300     0.4170 os         1 OX6      -0.472100
      4 C10          3.6330    -0.6910    -0.1320 c3         1 OX6       0.225000
      5 C14          4.5070    -0.9790     1.1080 c3         1 OX6      -0.109100
      6 C13          3.4030    -1.9990    -0.9330 c3         1 OX6      -0.109100
      7 C11          4.2750     0.4360    -0.9810 c3         1 OX6      -0.109100
      8 N7           0.2940     0.5100     0.4450 ns         1 OX6      -0.496900
      9 C6          -1.0270     0.9580    -0.0290 c3         1 OX6       0.117400
     10 C15         -1.7120     1.8960     1.0120 c3         1 OX6      -0.069700
     11 C17         -0.8050     3.0830     1.4300 c3         1 OX6      -0.090600
     12 C16         -3.0810     2.4220     0.5120 c3         1 OX6      -0.090600
     13 C3          -1.9030    -0.2080    -0.4540 cc         1 OX6       0.401300
     14 O2          -2.4180    -0.2340    -1.7100 os         1 OX6      -0.269000
     15 N5          -3.0470    -2.0310    -0.5430 nd         1 OX6      -0.360000
     16 N4          -2.2560    -1.2600     0.2700 nd         1 OX6      -0.365000
     17 H1          -3.6570    -1.6970    -2.5970 h5         1 OX6       0.091100
     18 H141         4.0440    -1.7440     1.7430 hc         1 OX6       0.050367
     19 H142         5.4990    -1.3400     0.8110 hc         1 OX6       0.050367
     20 H143         4.6420    -0.0720     1.7090 hc         1 OX6       0.050367
     21 H131         2.9000    -1.8120    -1.8870 hc         1 OX6       0.050367
     22 H132         4.3620    -2.4790    -1.1610 hc         1 OX6       0.050367
     23 H133         2.7990    -2.7080    -0.3540 hc         1 OX6       0.050367
     24 H111         4.2670     1.3880    -0.4360 hc         1 OX6       0.050367
     25 H112         5.3180     0.1900    -1.2160 hc         1 OX6       0.050367
     26 H113         3.7550     0.5790    -1.9340 hc         1 OX6       0.050367
     27 HN7          0.4730     0.4510     1.4380 hn         1 OX6       0.334500
     28 H6          -0.8550     1.5610    -0.9320 h1         1 OX6       0.090700
     29 H15         -1.9050     1.3030     1.9150 hc         1 OX6       0.063700
     30 H171        -0.5330     3.6910     0.5590 hc         1 OX6       0.041533
     31 H172        -1.3220     3.7300     2.1490 hc         1 OX6       0.041533
     32 H173         0.1180     2.7340     1.9080 hc         1 OX6       0.041533
     33 H161        -3.7810     1.5980     0.3260 hc         1 OX6       0.041533
     34 H162        -3.5400     3.0800     1.2590 hc         1 OX6       0.041533
     35 H163        -2.9650     2.9910    -0.4190 hc         1 OX6       0.041533
     36 C8           1.3190     0.1340    -0.3700 c          1 OX6       0.653100
@<TRIPOS>BOND
     1     1    14 1   
     2     1    15 2   
     3     1    17 1   
     4     2    36 2   
     5     3     4 1   
     6     3    36 1   
     7     4     5 1   
     8     4     6 1   
     9     4     7 1   
    10     5    18 1   
    11     5    19 1   
    12     5    20 1   
    13     6    21 1   
    14     6    22 1   
    15     6    23 1   
    16     7    24 1   
    17     7    25 1   
    18     7    26 1   
    19     8     9 1   
    20     8    27 1   
    21     8    36 1   
    22     9    10 1   
    23     9    13 1   
    24     9    28 1   
    25    10    11 1   
    26    10    12 1   
    27    10    29 1   
    28    11    30 1   
    29    11    31 1   
    30    11    32 1   
    31    12    33 1   
    32    12    34 1   
    33    12    35 1   
    34    13    14 1   
    35    13    16 2   
    36    15    16 1   
@<TRIPOS>SUBSTRUCTURE
     1 OX6         1 TEMP              0 ****  ****    0 ROOT
