@<TRIPOS>MOLECULE
OX6
   36    36     1     0     0
SMALL
bcc


@<TRIPOS>ATOM
      1 C1          -2.6990    -1.1850    -1.8830 cc         1 OX6       0.452300
      2 O12          1.1770     0.1380    -1.4710 o          1 OX6      -0.595000
      3 O9           2.4120    -0.0640     0.4240 os         1 OX6      -0.448900
      4 C10          3.5510    -0.7480    -0.1680 c3         1 OX6       0.201800
      5 C14          4.5100    -0.8920     1.0080 c3         1 OX6      -0.109100
      6 C13          3.1420    -2.1250    -0.6760 c3         1 OX6      -0.109100
      7 C11          4.2010     0.0950    -1.2580 c3         1 OX6      -0.109100
      8 N7           0.4030     0.8360     0.5280 ns         1 OX6      -0.563900
      9 C6          -0.8870     1.1990    -0.0010 c3         1 OX6       0.117400
     10 C15         -1.7350     1.8720     1.0950 c3         1 OX6      -0.069700
     11 C17         -1.0720     3.1580     1.5780 c3         1 OX6      -0.090600
     12 C16         -3.1470     2.1630     0.5980 c3         1 OX6      -0.090600
     13 C3          -1.5750    -0.0130    -0.5510 cc         1 OX6       0.445700
     14 O2          -2.1930     0.0480    -1.7380 os         1 OX6      -0.357800
     15 N5          -2.4240    -1.9400    -0.8870 nd         1 OX6      -0.360000
     16 N4          -1.6910    -1.1730    -0.0130 nd         1 OX6      -0.365000
     17 H1          -3.2600    -1.4200    -2.7740 h5         1 OX6       0.091100
     18 H141         4.0630    -1.4680     1.8190 hc         1 OX6       0.050367
     19 H142         5.4120    -1.4130     0.6860 hc         1 OX6       0.050367
     20 H143         4.8080     0.0830     1.3970 hc         1 OX6       0.050367
     21 H131         2.4660    -2.0710    -1.5260 hc         1 OX6       0.050367
     22 H132         4.0310    -2.6700    -0.9950 hc         1 OX6       0.050367
     23 H133         2.6640    -2.7060     0.1150 hc         1 OX6       0.050367
     24 H111         4.4320     1.0960    -0.8910 hc         1 OX6       0.050367
     25 H112         5.1420    -0.3740    -1.5500 hc         1 OX6       0.050367
     26 H113         3.5810     0.1810    -2.1470 hc         1 OX6       0.050367
     27 HN7          0.5190     0.7860     1.5280 hn         1 OX6       0.334500
     28 H6          -0.7620     1.9140    -0.8210 h1         1 OX6       0.090700
     29 H15         -1.8030     1.1680     1.9320 hc         1 OX6       0.063700
     30 H171        -1.0000     3.8860     0.7670 hc         1 OX6       0.041533
     31 H172        -1.6670     3.6060     2.3740 hc         1 OX6       0.041533
     32 H173        -0.0690     2.9950     1.9720 hc         1 OX6       0.041533
     33 H161        -3.7010     1.2580     0.3450 hc         1 OX6       0.041533
     34 H162        -3.7140     2.6760     1.3750 hc         1 OX6       0.041533
     35 H163        -3.1310     2.8090    -0.2820 hc         1 OX6       0.041533
     36 C8           1.3370     0.2780    -0.2760 c          1 OX6       0.769100
@<TRIPOS>BOND
     1     1    14 1   
     2     1    15 2   
     3     1    17 1   
     4     2    36 2   
     5     3     4 1   
     6     3    36 1   
     7     4     5 1   
     8     4     6 1   
     9     4     7 1   
    10     5    18 1   
    11     5    19 1   
    12     5    20 1   
    13     6    21 1   
    14     6    22 1   
    15     6    23 1   
    16     7    24 1   
    17     7    25 1   
    18     7    26 1   
    19     8     9 1   
    20     8    27 1   
    21     8    36 1   
    22     9    10 1   
    23     9    13 1   
    24     9    28 1   
    25    10    11 1   
    26    10    12 1   
    27    10    29 1   
    28    11    30 1   
    29    11    31 1   
    30    11    32 1   
    31    12    33 1   
    32    12    34 1   
    33    12    35 1   
    34    13    14 1   
    35    13    16 2   
    36    15    16 1   
@<TRIPOS>SUBSTRUCTURE
     1 OX6         1 TEMP              0 ****  ****    0 ROOT
