@<TRIPOS>MOLECULE
OX7
   36    36     1     0     0
SMALL
No Charge or Current Charge


@<TRIPOS>ATOM
      1 C1           3.1270    -1.4010    -1.7190 cc         1 OX7       0.407900
      2 O12         -1.2580     0.1310    -1.5920 o          1 OX7      -0.546000
      3 O9          -2.3710    -0.2460     0.4090 os         1 OX7      -0.473100
      4 C10         -3.6290    -0.6980    -0.1450 c3         1 OX7       0.226000
      5 C14         -3.4020    -1.9980    -0.9600 c3         1 OX7      -0.109433
      6 C13         -4.5030    -0.9990     1.0920 c3         1 OX7      -0.109433
      7 C11         -4.2690     0.4390    -0.9810 c3         1 OX7      -0.109433
      8 N7          -0.2880     0.4900     0.4450 ns         1 OX7      -0.497900
      9 C6           1.0340     0.9410    -0.0240 c3         1 OX7       0.117400
     10 C15          1.7190     1.8690     1.0260 c3         1 OX7      -0.069700
     11 C17          3.0890     2.3980     0.5320 c3         1 OX7      -0.090100
     12 C16          0.8130     3.0530     1.4540 c3         1 OX7      -0.090100
     13 C3           1.9090    -0.2220    -0.4580 cc         1 OX7       0.401300
     14 O2           2.4250    -0.2380    -1.7140 os         1 OX7      -0.270000
     15 N5           3.0520    -2.0450    -0.5620 nd         1 OX7      -0.360000
     16 N4           2.2610    -1.2810     0.2570 nd         1 OX7      -0.364000
     17 H1           3.6630    -1.6930    -2.6140 h5         1 OX7       0.091100
     18 H141        -2.7990    -2.7150    -0.3900 hc         1 OX7       0.050367
     19 H142        -4.3610    -2.4740    -1.1940 hc         1 OX7       0.050367
     20 H143        -2.8980    -1.8020    -1.9120 hc         1 OX7       0.050367
     21 H131        -4.6360    -0.0980     1.7040 hc         1 OX7       0.050367
     22 H132        -5.4960    -1.3550     0.7920 hc         1 OX7       0.050367
     23 H133        -4.0410    -1.7720     1.7180 hc         1 OX7       0.050367
     24 H111        -3.7490     0.5920    -1.9330 hc         1 OX7       0.050367
     25 H112        -5.3120     0.1980    -1.2180 hc         1 OX7       0.050367
     26 H113        -4.2590     1.3840    -0.4250 hc         1 OX7       0.050367
     27 HN7         -0.4670     0.4190     1.4380 hn         1 OX7       0.335500
     28 H6           0.8630     1.5520    -0.9210 h1         1 OX7       0.090700
     29 H15          1.9100     1.2680     1.9250 hc         1 OX7       0.063700
     30 H171         2.9750     2.9760    -0.3930 hc         1 OX7       0.041533
     31 H172         3.5480     3.0490     1.2860 hc         1 OX7       0.041533
     32 H173         3.7890     1.5750     0.3400 hc         1 OX7       0.041533
     33 H161        -0.1110     2.7010     1.9280 hc         1 OX7       0.041533
     34 H162         1.3290     3.6930     2.1800 hc         1 OX7       0.041533
     35 H163         0.5420     3.6690     0.5890 hc         1 OX7       0.041533
     36 C8          -1.3140     0.1250    -0.3740 c          1 OX7       0.653100
@<TRIPOS>BOND
     1     1    14 1   
     2     1    15 2   
     3     1    17 1   
     4     2    36 2   
     5     3     4 1   
     6     3    36 1   
     7     4     5 1   
     8     4     6 1   
     9     4     7 1   
    10     5    18 1   
    11     5    19 1   
    12     5    20 1   
    13     6    21 1   
    14     6    22 1   
    15     6    23 1   
    16     7    24 1   
    17     7    25 1   
    18     7    26 1   
    19     8     9 1   
    20     8    27 1   
    21     8    36 1   
    22     9    10 1   
    23     9    13 1   
    24     9    28 1   
    25    10    11 1   
    26    10    12 1   
    27    10    29 1   
    28    11    30 1   
    29    11    31 1   
    30    11    32 1   
    31    12    33 1   
    32    12    34 1   
    33    12    35 1   
    34    13    14 1   
    35    13    16 2   
    36    15    16 1   
@<TRIPOS>SUBSTRUCTURE
     1 OX7         1 TEMP              0 ****  ****    0 ROOT
