@<TRIPOS>MOLECULE
OX7
   36    36     1     0     0
SMALL
bcc


@<TRIPOS>ATOM
      1 C1           2.7040    -1.1810    -1.9020 cc         1 OX7       0.452300
      2 O12         -1.1720     0.1400    -1.4750 o          1 OX7      -0.595000
      3 O9          -2.4120    -0.0670     0.4150 os         1 OX7      -0.449900
      4 C10         -3.5490    -0.7540    -0.1800 c3         1 OX7       0.202800
      5 C14         -3.1350    -2.1270    -0.6920 c3         1 OX7      -0.109433
      6 C13         -4.5090    -0.9030     0.9940 c3         1 OX7      -0.109433
      7 C11         -4.1980     0.0910    -1.2700 c3         1 OX7      -0.109433
      8 N7          -0.3970     0.8170     0.5310 ns         1 OX7      -0.564900
      9 C6           0.8940     1.1830     0.0070 c3         1 OX7       0.117400
     10 C15          1.7440     1.8410     1.1100 c3         1 OX7      -0.069700
     11 C17          3.1570     2.1330     0.6180 c3         1 OX7      -0.090100
     12 C16          1.0830     3.1240     1.6060 c3         1 OX7      -0.090100
     13 C3           1.5780    -0.0250    -0.5570 cc         1 OX7       0.445700
     14 O2           2.2020     0.0510    -1.7420 os         1 OX7      -0.358800
     15 N5           2.4220    -1.9490    -0.9180 nd         1 OX7      -0.360000
     16 N4           1.6880    -1.1930    -0.0360 nd         1 OX7      -0.364000
     17 H1           3.2680    -1.4040    -2.7940 h5         1 OX7       0.091100
     18 H141        -2.6560    -2.7100     0.0970 hc         1 OX7       0.050367
     19 H142        -4.0230    -2.6740    -1.0120 hc         1 OX7       0.050367
     20 H143        -2.4590    -2.0700    -1.5420 hc         1 OX7       0.050367
     21 H131        -4.8110     0.0690     1.3850 hc         1 OX7       0.050367
     22 H132        -5.4080    -1.4260     0.6700 hc         1 OX7       0.050367
     23 H133        -4.0600    -1.4800     1.8040 hc         1 OX7       0.050367
     24 H111        -3.5790     0.1770    -2.1590 hc         1 OX7       0.050367
     25 H112        -5.1400    -0.3760    -1.5610 hc         1 OX7       0.050367
     26 H113        -4.4280     1.0930    -0.9020 hc         1 OX7       0.050367
     27 HN7         -0.5160     0.7630     1.5310 hn         1 OX7       0.335500
     28 H6           0.7710     1.9070    -0.8060 h1         1 OX7       0.090700
     29 H15          1.8080     1.1280     1.9390 hc         1 OX7       0.063700
     30 H171         3.1440     2.7890    -0.2550 hc         1 OX7       0.041533
     31 H172         3.7240     2.6350     1.4010 hc         1 OX7       0.041533
     32 H173         3.7080     1.2290     0.3550 hc         1 OX7       0.041533
     33 H161         0.0800     2.9600     1.9980 hc         1 OX7       0.041533
     34 H162         1.6800     3.5610     2.4070 hc         1 OX7       0.041533
     35 H163         1.0140     3.8610     0.8030 hc         1 OX7       0.041533
     36 C8          -1.3330     0.2720    -0.2790 c          1 OX7       0.769100
@<TRIPOS>BOND
     1     1    14 1   
     2     1    15 2   
     3     1    17 1   
     4     2    36 2   
     5     3     4 1   
     6     3    36 1   
     7     4     5 1   
     8     4     6 1   
     9     4     7 1   
    10     5    18 1   
    11     5    19 1   
    12     5    20 1   
    13     6    21 1   
    14     6    22 1   
    15     6    23 1   
    16     7    24 1   
    17     7    25 1   
    18     7    26 1   
    19     8     9 1   
    20     8    27 1   
    21     8    36 1   
    22     9    10 1   
    23     9    13 1   
    24     9    28 1   
    25    10    11 1   
    26    10    12 1   
    27    10    29 1   
    28    11    30 1   
    29    11    31 1   
    30    11    32 1   
    31    12    33 1   
    32    12    34 1   
    33    12    35 1   
    34    13    14 1   
    35    13    16 2   
    36    15    16 1   
@<TRIPOS>SUBSTRUCTURE
     1 OX7         1 TEMP              0 ****  ****    0 ROOT
