@<TRIPOS>MOLECULE
OX8
   60    60     1     0     0
SMALL
No Charge or Current Charge


@<TRIPOS>ATOM
      1 C13         17.9500   -40.4390     0.0690 c3         1 OX8      -0.090400
      2 C15         18.4930   -39.6000    -2.3410 c3         1 OX8      -0.098400
      3 C20         17.1090   -35.6080    -3.8990 c3         1 OX8      -0.154400
      4 C21         15.7200   -36.1060    -4.3850 c3         1 OX8      -0.140900
      5 C22         14.9350   -37.0160    -3.4110 c          1 OX8       0.592100
      6 C26         13.2090   -37.5590    -6.3800 c3         1 OX8      -0.090400
      7 C01         13.5210   -39.0730    -6.4970 c3         1 OX8      -0.068400
      8 C02         15.0270   -39.4160    -6.3570 c3         1 OX8      -0.098400
      9 C03         15.3500   -40.9020    -6.6070 c3         1 OX8       0.102000
     10 C05         15.6810   -42.5910    -4.7700 c          1 OX8       0.591600
     11 C07         14.9880   -43.2590    -3.5800 c3         1 OX8      -0.154400
     12 C08         15.4630   -42.6330    -2.2390 c3         1 OX8      -0.140900
     13 C09         14.9940   -41.1880    -1.9630 c          1 OX8       0.592100
     14 C12         16.5150   -41.0240     0.1170 c3         1 OX8       0.133500
     15 C14         18.7400   -40.6690    -1.2490 c3         1 OX8      -0.068400
     16 C16         19.1970   -38.2530    -2.0420 c3         1 OX8       0.102000
     17 C18         18.1060   -36.7630    -3.7550 c          1 OX8       0.591600
     18 C25         12.8900   -37.0230    -4.9590 c3         1 OX8       0.133500
     19 N04         14.8860   -41.7450    -5.5050 ns         1 OX8      -0.497900
     20 N11         15.5510   -40.4630    -0.8670 n          1 OX8      -0.258300
     21 N17         18.3970   -37.1030    -2.4560 ns         1 OX8      -0.497900
     22 N24         13.6980   -37.5730    -3.8420 n          1 OX8      -0.258300
     23 O06         16.8500   -42.8130    -5.0540 o          1 OX8      -0.621600
     24 O10         14.1440   -40.6640    -2.6780 o          1 OX8      -0.663600
     25 O19         18.6190   -37.3180    -4.7150 o          1 OX8      -0.621600
     26 O23         15.3960   -37.3160    -2.3120 o          1 OX8      -0.663600
     27 O27         12.9380   -38.3820    -2.9120 oh         1 OX8      -0.467600
     28 O28         14.9760   -39.1840    -0.4930 oh         1 OX8      -0.467600
     29 H1          18.5150   -40.9050     0.8860 hc         1 OX8       0.050450
     30 H2          17.9090   -39.3700     0.3050 hc         1 OX8       0.050450
     31 H3          18.8520   -39.9750    -3.3070 hc         1 OX8       0.054950
     32 H4          17.4160   -39.4420    -2.4580 hc         1 OX8       0.054950
     33 H5          16.9810   -35.0880    -2.9420 hc         1 OX8       0.072950
     34 H6          17.5010   -34.9080    -4.6470 hc         1 OX8       0.072950
     35 H7          15.0730   -35.2620    -4.6480 hc         1 OX8       0.073700
     36 H8          15.7950   -36.6210    -5.3470 hc         1 OX8       0.073700
     37 H9          14.0360   -36.9830    -6.8100 hc         1 OX8       0.050450
     38 H10         12.3420   -37.3340    -7.0130 hc         1 OX8       0.050450
     39 H11         13.1860   -39.4130    -7.4850 hc         1 OX8       0.046700
     40 H12         12.9300   -39.6330    -5.7620 hc         1 OX8       0.046700
     41 H13         15.5920   -38.8210    -7.0850 hc         1 OX8       0.054950
     42 H14         15.3950   -39.1320    -5.3650 hc         1 OX8       0.054950
     43 H15         14.8810   -41.2380    -7.5410 h1         1 OX8       0.056200
     44 H16         16.4370   -41.0090    -6.7210 h1         1 OX8       0.056200
     45 H17         13.8990   -43.1560    -3.6580 hc         1 OX8       0.072950
     46 H18         15.2580   -44.3210    -3.5760 hc         1 OX8       0.072950
     47 H19         15.1310   -43.2400    -1.3890 hc         1 OX8       0.073700
     48 H20         16.5500   -42.6890    -2.1360 hc         1 OX8       0.073700
     49 H21         16.1090   -40.8340     1.1190 h1         1 OX8       0.053950
     50 H22         16.5750   -42.1140     0.0220 h1         1 OX8       0.053950
     51 H23         18.5100   -41.6640    -1.6470 hc         1 OX8       0.046700
     52 H24         19.8130   -40.6840    -1.0200 hc         1 OX8       0.046700
     53 H25         19.3790   -38.1560    -0.9640 h1         1 OX8       0.056200
     54 H26         20.1730   -38.2230    -2.5450 h1         1 OX8       0.056200
     55 H27         12.9550   -35.9280    -4.9590 h1         1 OX8       0.053950
     56 H28         11.8380   -37.2620    -4.7530 h1         1 OX8       0.053950
     57 H29         13.9430   -41.6080    -5.1610 hn         1 OX8       0.321500
     58 H30         17.8890   -36.5960    -1.7420 hn         1 OX8       0.321500
     59 H31         13.3880   -39.2810    -2.9080 ho         1 OX8       0.502000
     60 H32         15.2660   -38.5260    -1.1940 ho         1 OX8       0.502000
@<TRIPOS>BOND
     1     1    14 1   
     2     1    15 1   
     3     1    29 1   
     4     1    30 1   
     5     2    15 1   
     6     2    16 1   
     7     2    31 1   
     8     2    32 1   
     9     3     4 1   
    10     3    17 1   
    11     3    33 1   
    12     3    34 1   
    13     4     5 1   
    14     4    35 1   
    15     4    36 1   
    16     5    22 1   
    17     5    26 2   
    18     6     7 1   
    19     6    18 1   
    20     6    37 1   
    21     6    38 1   
    22     7     8 1   
    23     7    39 1   
    24     7    40 1   
    25     8     9 1   
    26     8    41 1   
    27     8    42 1   
    28     9    19 1   
    29     9    43 1   
    30     9    44 1   
    31    10    11 1   
    32    10    19 1   
    33    10    23 2   
    34    11    12 1   
    35    11    45 1   
    36    11    46 1   
    37    12    13 1   
    38    12    47 1   
    39    12    48 1   
    40    13    20 1   
    41    13    24 2   
    42    14    20 1   
    43    14    49 1   
    44    14    50 1   
    45    15    51 1   
    46    15    52 1   
    47    16    21 1   
    48    16    53 1   
    49    16    54 1   
    50    17    21 1   
    51    17    25 2   
    52    18    22 1   
    53    18    55 1   
    54    18    56 1   
    55    19    57 1   
    56    20    28 1   
    57    21    58 1   
    58    22    27 1   
    59    27    59 1   
    60    28    60 1   
@<TRIPOS>SUBSTRUCTURE
     1 OX8         1 TEMP              0 ****  ****    0 ROOT
