@<TRIPOS>MOLECULE
OX8
   60    60     1     0     0
SMALL
abcg2


@<TRIPOS>ATOM
      1 C13         18.3750   -40.6280    -0.4990 c3         1 OX8      -0.090400
      2 C15         18.0120   -39.4430    -2.7750 c3         1 OX8      -0.098400
      3 C20         16.3910   -35.4440    -4.1760 c3         1 OX8      -0.154400
      4 C21         15.1690   -35.5120    -3.2460 c3         1 OX8      -0.140900
      5 C22         14.6020   -36.8980    -2.9970 c          1 OX8       0.592100
      6 C26         14.4830   -37.6270    -6.4670 c3         1 OX8      -0.090400
      7 C01         14.3820   -39.1480    -6.6970 c3         1 OX8      -0.068400
      8 C02         15.6660   -39.8930    -6.3350 c3         1 OX8      -0.098400
      9 C03         15.5270   -41.4130    -6.4170 c3         1 OX8       0.102000
     10 C05         15.2850   -42.4060    -4.1810 c          1 OX8       0.591600
     11 C07         14.3100   -42.8930    -3.1220 c3         1 OX8      -0.154400
     12 C08         14.8410   -42.6540    -1.7110 c3         1 OX8      -0.140900
     13 C09         14.8380   -41.1820    -1.3520 c          1 OX8       0.592100
     14 C12         17.0560   -41.3020    -0.1180 c3         1 OX8       0.133500
     15 C14         18.6890   -40.5780    -2.0010 c3         1 OX8      -0.068400
     16 C16         18.5380   -38.0580    -2.3810 c3         1 OX8       0.102000
     17 C18         17.5110   -36.4510    -3.9520 c          1 OX8       0.591600
     18 C25         13.6370   -37.0700    -5.3230 c3         1 OX8       0.133500
     19 N04         14.7350   -41.9620    -5.3260 ns         1 OX8      -0.497900
     20 N11         15.8730   -40.6650    -0.6760 n          1 OX8      -0.258300
     21 N17         17.6160   -36.9850    -2.7250 ns         1 OX8      -0.497900
     22 N24         13.9970   -37.5420    -3.9930 n          1 OX8      -0.258300
     23 O06         16.5040   -42.4550    -4.0010 o          1 OX8      -0.621600
     24 O10         13.8750   -40.4630    -1.6730 o          1 OX8      -0.663600
     25 O19         18.2910   -36.7220    -4.8700 o          1 OX8      -0.621600
     26 O23         14.7240   -37.4330    -1.8750 o          1 OX8      -0.663600
     27 O27         13.4740   -38.8070    -3.7360 oh         1 OX8      -0.467600
     28 O28         15.7500   -39.3480    -0.2310 oh         1 OX8      -0.467600
     29 H1          19.1520   -41.2040     0.0100 hc         1 OX8       0.050450
     30 H2          18.4070   -39.6310    -0.0580 hc         1 OX8       0.050450
     31 H3          18.1650   -39.5900    -3.8460 hc         1 OX8       0.054950
     32 H4          16.9340   -39.4680    -2.6190 hc         1 OX8       0.054950
     33 H5          16.8320   -34.4480    -4.0850 hc         1 OX8       0.072950
     34 H6          16.0960   -35.5490    -5.2180 hc         1 OX8       0.072950
     35 H7          15.4220   -35.1300    -2.2580 hc         1 OX8       0.073700
     36 H8          14.3950   -34.8560    -3.6440 hc         1 OX8       0.073700
     37 H9          15.5270   -37.3510    -6.3050 hc         1 OX8       0.050450
     38 H10         14.1620   -37.0900    -7.3620 hc         1 OX8       0.050450
     39 H11         14.1530   -39.3450    -7.7470 hc         1 OX8       0.046700
     40 H12         13.5490   -39.5500    -6.1180 hc         1 OX8       0.046700
     41 H13         16.4650   -39.5790    -7.0140 hc         1 OX8       0.054950
     42 H14         15.9900   -39.6210    -5.3260 hc         1 OX8       0.054950
     43 H15         15.0540   -41.6980    -7.3590 h1         1 OX8       0.056200
     44 H16         16.5060   -41.8870    -6.3760 h1         1 OX8       0.056200
     45 H17         13.3350   -42.4260    -3.2530 hc         1 OX8       0.072950
     46 H18         14.1790   -43.9680    -3.2700 hc         1 OX8       0.072950
     47 H19         14.1810   -43.1450    -0.9900 hc         1 OX8       0.073700
     48 H20         15.8210   -43.1080    -1.6150 hc         1 OX8       0.073700
     49 H21         16.9500   -41.3030     0.9710 h1         1 OX8       0.053950
     50 H22         17.0570   -42.3350    -0.4480 h1         1 OX8       0.053950
     51 H23         18.4030   -41.5290    -2.4560 hc         1 OX8       0.046700
     52 H24         19.7730   -40.4870    -2.1250 hc         1 OX8       0.046700
     53 H25         18.6880   -37.9990    -1.3040 h1         1 OX8       0.056200
     54 H26         19.4980   -37.8640    -2.8590 h1         1 OX8       0.056200
     55 H27         13.7000   -35.9850    -5.3090 h1         1 OX8       0.053950
     56 H28         12.5860   -37.3330    -5.4650 h1         1 OX8       0.053950
     57 H29         13.7300   -41.8980    -5.3780 hn         1 OX8       0.321500
     58 H30         16.8900   -36.8000    -2.0510 hn         1 OX8       0.321500
     59 H31         13.8120   -39.0960    -2.8540 ho         1 OX8       0.502000
     60 H32         15.2950   -38.8430    -0.9450 ho         1 OX8       0.502000
@<TRIPOS>BOND
     1     1    14 1   
     2     1    15 1   
     3     1    29 1   
     4     1    30 1   
     5     2    15 1   
     6     2    16 1   
     7     2    31 1   
     8     2    32 1   
     9     3     4 1   
    10     3    17 1   
    11     3    33 1   
    12     3    34 1   
    13     4     5 1   
    14     4    35 1   
    15     4    36 1   
    16     5    22 1   
    17     5    26 2   
    18     6     7 1   
    19     6    18 1   
    20     6    37 1   
    21     6    38 1   
    22     7     8 1   
    23     7    39 1   
    24     7    40 1   
    25     8     9 1   
    26     8    41 1   
    27     8    42 1   
    28     9    19 1   
    29     9    43 1   
    30     9    44 1   
    31    10    11 1   
    32    10    19 1   
    33    10    23 2   
    34    11    12 1   
    35    11    45 1   
    36    11    46 1   
    37    12    13 1   
    38    12    47 1   
    39    12    48 1   
    40    13    20 1   
    41    13    24 2   
    42    14    20 1   
    43    14    49 1   
    44    14    50 1   
    45    15    51 1   
    46    15    52 1   
    47    16    21 1   
    48    16    53 1   
    49    16    54 1   
    50    17    21 1   
    51    17    25 2   
    52    18    22 1   
    53    18    55 1   
    54    18    56 1   
    55    19    57 1   
    56    20    28 1   
    57    21    58 1   
    58    22    27 1   
    59    27    59 1   
    60    28    60 1   
@<TRIPOS>SUBSTRUCTURE
     1 OX8         1 TEMP              0 ****  ****    0 ROOT
