@<TRIPOS>MOLECULE
OXC
   15    15     1     0     0
SMALL
bcc


@<TRIPOS>ATOM
      1 N1          -0.1810     0.1990    -1.9090 ns         1 OXC      -0.630500
      2 C2          -1.3460    -0.0120    -1.1790 c          1 OXC       0.818500
      3 O2          -2.4110    -0.2220    -1.7330 o          1 OXC      -0.700000
      4 N3          -1.1510     0.0170     0.1500 ns         1 OXC      -0.550400
      5 C4           0.0540     0.5800     0.7000 c6         1 OXC       0.116100
      6 N5           1.1610     0.0670    -0.0650 ns         1 OXC      -0.550400
      7 C6           1.1060     0.0370    -1.4080 c          1 OXC       0.818500
      8 O6           2.0580    -0.1360    -2.1480 o          1 OXC      -0.700000
      9 CG           0.2030     0.2310     2.2010 c          1 OXC       0.938600
     10 OD1         -0.8610     0.0950     2.8250 o          1 OXC      -0.810800
     11 OD2          1.3680     0.1700     2.6210 o          1 OXC      -0.810800
     12 HN1         -0.2730     0.1260    -2.9120 hn         1 OXC       0.319500
     13 HN3         -1.9440    -0.0750     0.7680 hn         1 OXC       0.358500
     14 H4           0.0230     1.6790     0.6200 h2         1 OXC       0.023700
     15 HN5          2.0570     0.0110     0.3940 hn         1 OXC       0.358500
@<TRIPOS>BOND
     1     1     2 1   
     2     1     7 1   
     3     1    12 1   
     4     2     3 2   
     5     2     4 1   
     6     4     5 1   
     7     4    13 1   
     8     5     6 1   
     9     5     9 1   
    10     5    14 1   
    11     6     7 1   
    12     6    15 1   
    13     7     8 2   
    14     9    10 1   
    15     9    11 1   
@<TRIPOS>SUBSTRUCTURE
     1 OXC         1 TEMP              0 ****  ****    0 ROOT
