@<TRIPOS>MOLECULE
OXC
   15    15     1     0     0
SMALL
No Charge or Current Charge


@<TRIPOS>ATOM
      1 N1          -0.1800     0.0250    -1.9420 ns         1 OXC      -0.496500
      2 C2          -1.3380    -0.0080    -1.2310 c          1 OXC       0.609000
      3 O2          -2.4270    -0.1600    -1.7510 o          1 OXC      -0.624500
      4 N3          -1.1700     0.1020     0.1180 ns         1 OXC      -0.483400
      5 C4           0.0590     0.6050     0.7520 c6         1 OXC       0.116100
      6 N5           1.1690     0.1520    -0.1010 ns         1 OXC      -0.483400
      7 C6           1.0890     0.0440    -1.4580 c          1 OXC       0.609000
      8 O6           2.0690    -0.0640    -2.1710 o          1 OXC      -0.624500
      9 CG           0.2100     0.1910     2.2720 c          1 OXC       0.728000
     10 OD1         -0.8090     0.0290     2.9350 o          1 OXC      -0.705500
     11 OD2          1.3400     0.0760     2.7340 o          1 OXC      -0.705500
     12 HN1         -0.2720    -0.0630    -2.9410 hn         1 OXC       0.319500
     13 HN3         -2.0060     0.0230     0.6850 hn         1 OXC       0.358500
     14 H4           0.0320     1.7030     0.7220 h2         1 OXC       0.023700
     15 HN5          2.0980     0.1110     0.3020 hn         1 OXC       0.358500
@<TRIPOS>BOND
     1     1     2 1   
     2     1     7 1   
     3     1    12 1   
     4     2     3 2   
     5     2     4 1   
     6     4     5 1   
     7     4    13 1   
     8     5     6 1   
     9     5     9 1   
    10     5    14 1   
    11     6     7 1   
    12     6    15 1   
    13     7     8 2   
    14     9    10 1   
    15     9    11 1   
@<TRIPOS>SUBSTRUCTURE
     1 OXC         1 TEMP              0 ****  ****    0 ROOT
