@<TRIPOS>MOLECULE
OXD
    6     5     1     0     0
SMALL
No Charge or Current Charge


@<TRIPOS>ATOM
      1 C1          -0.1380     0.0250     0.8210 c          1 OXD       0.589000
      2 C2           0.1930    -0.0260    -0.8290 c          1 OXD       0.589000
      3 O3          -1.2690    -0.2580     1.2220 o          1 OXD      -0.795000
      4 O4           1.3240    -0.3320    -1.2110 o          1 OXD      -0.795000
      5 O5           0.7540     0.3440     1.6090 o          1 OXD      -0.795000
      6 O6          -0.7000     0.2440    -1.6350 o          1 OXD      -0.795000
@<TRIPOS>BOND
     1     1     2 1   
     2     1     3 1   
     3     1     5 1   
     4     2     4 1   
     5     2     6 1   
@<TRIPOS>SUBSTRUCTURE
     1 OXD         1 TEMP              0 ****  ****    0 ROOT
