@<TRIPOS>MOLECULE
OXD
    6     5     1     0     0
SMALL
abcg2


@<TRIPOS>ATOM
      1 C1          -0.1270     0.0240     0.7650 c          1 OXD       0.589000
      2 C2           0.1810    -0.0240    -0.7730 c          1 OXD       0.589000
      3 O3          -1.3280     0.0140     1.1030 o          1 OXD      -0.795000
      4 O4           1.3830    -0.0530    -1.1080 o          1 OXD      -0.795000
      5 O5           0.8520     0.0670     1.5380 o          1 OXD      -0.795000
      6 O6          -0.7980    -0.0300    -1.5470 o          1 OXD      -0.795000
@<TRIPOS>BOND
     1     1     2 1   
     2     1     3 1   
     3     1     5 1   
     4     2     4 1   
     5     2     6 1   
@<TRIPOS>SUBSTRUCTURE
     1 OXD         1 TEMP              0 ****  ****    0 ROOT
