@<TRIPOS>MOLECULE
OXE
   18    18     1     0     0
SMALL
abcg2


@<TRIPOS>ATOM
      1 C1           0.7080    -0.0260     0.4990 ca         1 OXE      -0.075300
      2 C2          -0.6930     0.0420     0.5020 ca         1 OXE      -0.075300
      3 C3          -1.3700     0.0800    -0.7130 ca         1 OXE      -0.108000
      4 C4          -0.6890     0.0550    -1.9240 ca         1 OXE      -0.111000
      5 C5           0.6950    -0.0090    -1.9270 ca         1 OXE      -0.111000
      6 C6           1.3810    -0.0490    -0.7190 ca         1 OXE      -0.108000
      7 C7           1.4740    -0.0790     1.7880 c3         1 OXE      -0.046800
      8 C8          -1.4540     0.0780     1.7950 c3         1 OXE      -0.046800
      9 H3          -2.4530     0.1290    -0.7120 ha         1 OXE       0.109000
     10 H4          -1.2400     0.0860    -2.8550 ha         1 OXE       0.111000
     11 H5           1.2430    -0.0280    -2.8600 ha         1 OXE       0.111000
     12 H6           2.4640    -0.0980    -0.7230 ha         1 OXE       0.109000
     13 H1'1         1.2700     0.7890     2.4180 hc         1 OXE       0.040367
     14 H1'2         1.2130    -0.9620     2.3760 hc         1 OXE       0.040367
     15 H1'3         2.5480    -0.1100     1.6070 hc         1 OXE       0.040367
     16 H2'1        -1.2420    -0.7940     2.4170 hc         1 OXE       0.040367
     17 H2'2        -1.1950     0.9570     2.3900 hc         1 OXE       0.040367
     18 H2'3        -2.5280     0.1050     1.6190 hc         1 OXE       0.040367
@<TRIPOS>BOND
     1     1     2 ar  
     2     1     6 ar  
     3     1     7 1   
     4     2     3 ar  
     5     2     8 1   
     6     3     4 ar  
     7     3     9 1   
     8     4     5 ar  
     9     4    10 1   
    10     5     6 ar  
    11     5    11 1   
    12     6    12 1   
    13     7    13 1   
    14     7    14 1   
    15     7    15 1   
    16     8    16 1   
    17     8    17 1   
    18     8    18 1   
@<TRIPOS>SUBSTRUCTURE
     1 OXE         1 TEMP              0 ****  ****    0 ROOT
