@<TRIPOS>MOLECULE
OXE
   18    18     1     0     0
SMALL
No Charge or Current Charge


@<TRIPOS>ATOM
      1 C1           0.7150    -0.0260     0.5030 ca         1 OXE      -0.075300
      2 C2          -0.7000     0.0420     0.5060 ca         1 OXE      -0.075300
      3 C3          -1.3950     0.0820    -0.7200 ca         1 OXE      -0.108000
      4 C4          -0.6980     0.0560    -1.9380 ca         1 OXE      -0.111000
      5 C5           0.7040    -0.0110    -1.9410 ca         1 OXE      -0.111000
      6 C6           1.4060    -0.0510    -0.7260 ca         1 OXE      -0.108000
      7 C7           1.5080    -0.0720     1.8060 c3         1 OXE      -0.046800
      8 C8          -1.4870     0.0710     1.8130 c3         1 OXE      -0.046800
      9 H3          -2.4820     0.1340    -0.7300 ha         1 OXE       0.109000
     10 H4          -1.2430     0.0880    -2.8790 ha         1 OXE       0.111000
     11 H5           1.2460    -0.0310    -2.8840 ha         1 OXE       0.111000
     12 H6           2.4920    -0.1030    -0.7420 ha         1 OXE       0.109000
     13 H1'1         1.3210     0.8220     2.4140 hc         1 OXE       0.040367
     14 H1'2         1.2360    -0.9500     2.4030 hc         1 OXE       0.040367
     15 H1'3         2.5880    -0.1220     1.6250 hc         1 OXE       0.040367
     16 H2'1        -1.2980    -0.8290     2.4090 hc         1 OXE       0.040367
     17 H2'2        -1.2130     0.9420     2.4200 hc         1 OXE       0.040367
     18 H2'3        -2.5680     0.1240     1.6370 hc         1 OXE       0.040367
@<TRIPOS>BOND
     1     1     2 ar  
     2     1     6 ar  
     3     1     7 1   
     4     2     3 ar  
     5     2     8 1   
     6     3     4 ar  
     7     3     9 1   
     8     4     5 ar  
     9     4    10 1   
    10     5     6 ar  
    11     5    11 1   
    12     6    12 1   
    13     7    13 1   
    14     7    14 1   
    15     7    15 1   
    16     8    16 1   
    17     8    17 1   
    18     8    18 1   
@<TRIPOS>SUBSTRUCTURE
     1 OXE         1 TEMP              0 ****  ****    0 ROOT
