@<TRIPOS>MOLECULE
OXF
   54    56     1     0     0
SMALL
No Charge or Current Charge


@<TRIPOS>ATOM
      1 C10        122.2990   131.6290   101.5570 ca         1 OXF      -0.053300
      2 C17        119.4430   134.5950   103.0180 ca         1 OXF      -0.117500
      3 C21        120.7510   135.8730   104.6280 ca         1 OXF      -0.117500
      4 C11        121.9170   132.7030   102.3860 ca         1 OXF      -0.182000
      5 C14        121.6370   130.0640   103.3110 ca         1 OXF      -0.085000
      6 C18        118.8280   135.7810   102.5780 ca         1 OXF      -0.102500
      7 C19        119.1760   137.0120   103.1620 ca         1 OXF      -0.112000
      8 C1         126.3480   131.3840    98.5360 c6         1 OXF       0.165300
      9 C12        121.3870   132.4580   103.6670 ca         1 OXF       0.134100
     10 C13        121.2580   131.1400   104.1320 ca         1 OXF      -0.139000
     11 C15        122.1540   130.3090   102.0270 ca         1 OXF      -0.121000
     12 C16        120.4150   134.6430   104.0380 ca         1 OXF       0.096100
     13 C2         124.8260   131.7160    98.6550 c6         1 OXF       0.164300
     14 C20        120.1350   137.0580   104.1880 ca         1 OXF      -0.102500
     15 C3         125.1610   132.4380   100.9690 c6         1 OXF       0.164300
     16 C4         126.6820   132.1050   100.8500 c6         1 OXF       0.165300
     17 C5         128.6530   131.9490    99.3510 c3         1 OXF       0.132800
     18 C6         129.3440   132.2410    97.9810 c3         1 OXF       0.169600
     19 C7         128.4400   134.5100    97.6830 c3         1 OXF       0.165600
     20 C8         128.8910   135.9290    97.2410 c3         1 OXF       0.159600
     21 C9         122.8720   131.8890   100.1640 c3         1 OXF       0.212100
     22 N1         124.3210   131.5990   100.0570 n3         1 OXF      -0.720600
     23 N2         127.1890   132.2240    99.4490 n3         1 OXF      -0.724600
     24 O1         129.6010   133.6560    97.8020 os         1 OXF      -0.448000
     25 O2         129.6640   136.5900    98.2620 oh         1 OXF      -0.706000
     26 O3         121.0230   133.4950   104.4970 os         1 OXF      -0.257200
     27 H1         119.1630   133.6450   102.5700 ha         1 OXF       0.129000
     28 H2         121.4910   135.9070   105.4240 ha         1 OXF       0.129000
     29 H3         122.0400   133.7250   102.0360 ha         1 OXF       0.123000
     30 H4         121.5340   129.0420   103.6700 ha         1 OXF       0.114000
     31 H5         118.0800   135.7450   101.7880 ha         1 OXF       0.116500
     32 H6         118.6990   137.9290   102.8210 ha         1 OXF       0.116000
     33 H7         126.4930   130.3180    98.7650 h1         1 OXF       0.037950
     34 H8         126.6440   131.5310    97.4890 h1         1 OXF       0.037950
     35 H9         120.8600   130.9530   105.1260 ha         1 OXF       0.128000
     36 H10        122.4520   129.4740   101.3970 ha         1 OXF       0.129000
     37 H11        124.6630   132.7380    98.2800 h1         1 OXF       0.039450
     38 H12        124.2680   131.0390    97.9930 h1         1 OXF       0.039450
     39 H13        120.4000   138.0100   104.6430 ha         1 OXF       0.116500
     40 H14        125.0180   133.5050   100.7390 h1         1 OXF       0.039450
     41 H15        124.8580   132.2920   102.0160 h1         1 OXF       0.039450
     42 H16        126.8450   131.0830   101.2240 h1         1 OXF       0.037950
     43 H17        127.2400   132.7820   101.5140 h1         1 OXF       0.037950
     44 H18        128.8300   130.8910    99.5870 h1         1 OXF       0.040700
     45 H19        129.1880   132.5280   100.1160 h1         1 OXF       0.040700
     46 H20        128.7490   131.8400    97.1520 h1         1 OXF       0.039200
     47 H21        130.3010   131.7050    97.9730 h1         1 OXF       0.039200
     48 H22        127.9030   134.5920    98.6370 h1         1 OXF       0.037200
     49 H23        127.7450   134.1120    96.9310 h1         1 OXF       0.037200
     50 H24        129.4750   135.8440    96.3140 h1         1 OXF       0.020200
     51 H25        127.9950   136.5210    97.0100 h1         1 OXF       0.020200
     52 H26        122.6760   132.9330    99.8840 h1         1 OXF       0.039200
     53 H27        122.3170   131.2630    99.4510 h1         1 OXF       0.039200
     54 H30        129.9640   137.4490    97.8830 ho         1 OXF       0.497000
@<TRIPOS>BOND
     1     1     4 ar  
     2     1    11 ar  
     3     1    21 1   
     4     2     6 ar  
     5     2    12 ar  
     6     2    27 1   
     7     3    12 ar  
     8     3    14 ar  
     9     3    28 1   
    10     4     9 ar  
    11     4    29 1   
    12     5    10 ar  
    13     5    11 ar  
    14     5    30 1   
    15     6     7 ar  
    16     6    31 1   
    17     7    14 ar  
    18     7    32 1   
    19     8    13 1   
    20     8    23 1   
    21     8    33 1   
    22     8    34 1   
    23     9    10 ar  
    24     9    26 1   
    25    10    35 1   
    26    11    36 1   
    27    12    26 1   
    28    13    22 1   
    29    13    37 1   
    30    13    38 1   
    31    14    39 1   
    32    15    16 1   
    33    15    22 1   
    34    15    40 1   
    35    15    41 1   
    36    16    23 1   
    37    16    42 1   
    38    16    43 1   
    39    17    18 1   
    40    17    23 1   
    41    17    44 1   
    42    17    45 1   
    43    18    24 1   
    44    18    46 1   
    45    18    47 1   
    46    19    20 1   
    47    19    24 1   
    48    19    48 1   
    49    19    49 1   
    50    20    25 1   
    51    20    50 1   
    52    20    51 1   
    53    21    22 1   
    54    21    52 1   
    55    21    53 1   
    56    25    54 1   
@<TRIPOS>SUBSTRUCTURE
     1 OXF         1 TEMP              0 ****  ****    0 ROOT
