@<TRIPOS>MOLECULE
OXF
   54    56     1     0     0
SMALL
abcg2


@<TRIPOS>ATOM
      1 C10        122.4090   131.7390   101.6170 ca         1 OXF      -0.053300
      2 C17        118.9460   134.6730   103.0860 ca         1 OXF      -0.117500
      3 C21        120.9640   135.4230   104.1800 ca         1 OXF      -0.117500
      4 C11        121.6360   132.6530   102.3270 ca         1 OXF      -0.182000
      5 C14        122.0550   130.1190   103.3580 ca         1 OXF      -0.085000
      6 C18        118.6990   135.9730   102.6630 ca         1 OXF      -0.102500
      7 C19        119.5790   136.9960   102.9900 ca         1 OXF      -0.112000
      8 C1         126.2800   131.4240    98.6540 c6         1 OXF       0.165300
      9 C12        121.0720   132.2940   103.5470 ca         1 OXF       0.134100
     10 C13        121.2800   131.0220   104.0690 ca         1 OXF      -0.139000
     11 C15        122.6190   130.4670   102.1390 ca         1 OXF      -0.121000
     12 C16        120.0770   134.4110   103.8440 ca         1 OXF       0.096100
     13 C2         124.8370   131.8730    98.7730 c6         1 OXF       0.164300
     14 C20        120.7080   136.7190   103.7510 ca         1 OXF      -0.102500
     15 C3         125.2330   132.5380   101.0180 c6         1 OXF       0.164300
     16 C4         126.6740   132.0840   100.8970 c6         1 OXF       0.165300
     17 C5         128.5360   131.8510    99.3950 c3         1 OXF       0.132800
     18 C6         129.1990   132.3430    98.1170 c3         1 OXF       0.169600
     19 C7         128.3100   134.5210    97.7050 c3         1 OXF       0.165600
     20 C8         128.7850   135.8780    97.2480 c3         1 OXF       0.159600
     21 C9         122.9840   132.1250   100.2770 c3         1 OXF       0.212100
     22 N1         124.3780   131.7590   100.1440 n3         1 OXF      -0.720600
     23 N2         127.1360   132.2030    99.5280 n3         1 OXF      -0.724600
     24 O1         129.4190   133.7300    98.0670 os         1 OXF      -0.448000
     25 O2         129.3810   136.5590    98.3290 oh         1 OXF      -0.706000
     26 O3         120.3040   133.1340   104.2960 os         1 OXF      -0.257200
     27 H1         118.2640   133.8710   102.8320 ha         1 OXF       0.129000
     28 H2         121.8420   135.2000   104.7720 ha         1 OXF       0.129000
     29 H3         121.4860   133.6440   101.9170 ha         1 OXF       0.123000
     30 H4         122.2180   129.1290   103.7650 ha         1 OXF       0.114000
     31 H5         117.8170   136.1830   102.0730 ha         1 OXF       0.116500
     32 H6         119.3840   138.0060   102.6570 ha         1 OXF       0.116000
     33 H7         126.3470   130.3460    98.8870 h1         1 OXF       0.037950
     34 H8         126.5950   131.5460    97.6170 h1         1 OXF       0.037950
     35 H9         120.8420   130.7500   105.0210 ha         1 OXF       0.128000
     36 H10        123.2290   129.7550   101.5980 ha         1 OXF       0.129000
     37 H11        124.7500   132.9070    98.4000 h1         1 OXF       0.039450
     38 H12        124.2140   131.2440    98.1330 h1         1 OXF       0.039450
     39 H13        121.3960   137.5130   104.0110 ha         1 OXF       0.116500
     40 H14        125.1700   133.6150   100.7850 h1         1 OXF       0.039450
     41 H15        124.9080   132.4140   102.0530 h1         1 OXF       0.039450
     42 H16        126.7580   131.0480   101.2670 h1         1 OXF       0.037950
     43 H17        127.2990   132.7080   101.5410 h1         1 OXF       0.037950
     44 H18        128.6860   130.7580    99.4540 h1         1 OXF       0.040700
     45 H19        129.0800   132.2790   100.2420 h1         1 OXF       0.040700
     46 H20        128.6430   132.0060    97.2310 h1         1 OXF       0.039200
     47 H21        130.1850   131.8740    98.0590 h1         1 OXF       0.039200
     48 H22        127.6040   134.6310    98.5350 h1         1 OXF       0.037200
     49 H23        127.7550   134.0610    96.8760 h1         1 OXF       0.037200
     50 H24        129.4830   135.7550    96.4090 h1         1 OXF       0.020200
     51 H25        127.9110   136.4160    96.8580 h1         1 OXF       0.020200
     52 H26        122.8230   133.2030   100.1060 h1         1 OXF       0.039200
     53 H27        122.4240   131.6050    99.4940 h1         1 OXF       0.039200
     54 H30        129.6950   137.4100    98.0100 ho         1 OXF       0.497000
@<TRIPOS>BOND
     1     1     4 ar  
     2     1    11 ar  
     3     1    21 1   
     4     2     6 ar  
     5     2    12 ar  
     6     2    27 1   
     7     3    12 ar  
     8     3    14 ar  
     9     3    28 1   
    10     4     9 ar  
    11     4    29 1   
    12     5    10 ar  
    13     5    11 ar  
    14     5    30 1   
    15     6     7 ar  
    16     6    31 1   
    17     7    14 ar  
    18     7    32 1   
    19     8    13 1   
    20     8    23 1   
    21     8    33 1   
    22     8    34 1   
    23     9    10 ar  
    24     9    26 1   
    25    10    35 1   
    26    11    36 1   
    27    12    26 1   
    28    13    22 1   
    29    13    37 1   
    30    13    38 1   
    31    14    39 1   
    32    15    16 1   
    33    15    22 1   
    34    15    40 1   
    35    15    41 1   
    36    16    23 1   
    37    16    42 1   
    38    16    43 1   
    39    17    18 1   
    40    17    23 1   
    41    17    44 1   
    42    17    45 1   
    43    18    24 1   
    44    18    46 1   
    45    18    47 1   
    46    19    20 1   
    47    19    24 1   
    48    19    48 1   
    49    19    49 1   
    50    20    25 1   
    51    20    50 1   
    52    20    51 1   
    53    21    22 1   
    54    21    52 1   
    55    21    53 1   
    56    25    54 1   
@<TRIPOS>SUBSTRUCTURE
     1 OXF         1 TEMP              0 ****  ****    0 ROOT
