@<TRIPOS>MOLECULE
OXG
   15    16     1     0     0
SMALL
bcc


@<TRIPOS>ATOM
      1 N9           1.3660    -0.0130    -1.4890 nc         1 OXG      -0.632100
      2 C8           0.2780    -0.0290    -2.3390 c          1 OXG       0.768900
      3 N7          -1.0070    -0.0320    -1.6070 nc         1 OXG      -0.498100
      4 C5          -0.6340    -0.0180    -0.4030 cd         1 OXG       0.192000
      5 C6          -1.4580    -0.0110     0.8260 c          1 OXG       0.667200
      6 O6          -2.6590    -0.0180     0.8610 o          1 OXG      -0.514500
      7 N1          -0.6630     0.0050     1.9490 ns         1 OXG      -0.544400
      8 C2           0.7130     0.0150     1.9500 cc         1 OXG       0.784800
      9 N2           1.2940     0.0300     3.1240 nv         1 OXG      -0.914800
     10 N3           1.4810     0.0100     0.8650 nd         1 OXG      -0.784000
     11 C4           0.8550    -0.0050    -0.2930 cd         1 OXG       0.628000
     12 O8           0.2930    -0.0400    -3.5370 o          1 OXG      -0.422100
     13 H1          -1.1430     0.0120     2.8430 hn         1 OXG       0.332500
     14 H21          2.3010     0.0340     3.1730 hn         1 OXG       0.468300
     15 H22          0.7810     0.0310     3.9910 hn         1 OXG       0.468300
@<TRIPOS>BOND
     1     1     2 1   
     2     1    11 2   
     3     2     3 1   
     4     2    12 2   
     5     3     4 2   
     6     4     5 1   
     7     4    11 1   
     8     5     6 2   
     9     5     7 1   
    10     7     8 1   
    11     7    13 1   
    12     8     9 1   
    13     8    10 2   
    14     9    14 1   
    15     9    15 1   
    16    10    11 1   
@<TRIPOS>SUBSTRUCTURE
     1 OXG         1 TEMP              0 ****  ****    0 ROOT
