@<TRIPOS>MOLECULE
OXG
   15    16     1     0     0
SMALL
No Charge or Current Charge


@<TRIPOS>ATOM
      1 N9           1.2990     0.0000    -1.4120 nc         1 OXG      -0.632100
      2 C8           0.2740    -0.0680    -2.3410 c          1 OXG       0.768900
      3 N7          -0.9290    -0.0790    -1.6480 nc         1 OXG      -0.498100
      4 C5          -0.6400    -0.0220    -0.3600 cd         1 OXG       0.192000
      5 C6          -1.4680     0.0010     0.8470 c          1 OXG       0.524700
      6 O6          -2.6890    -0.0300     0.8980 o          1 OXG      -0.439000
      7 N1          -0.6690     0.0660     1.9630 ns         1 OXG      -0.477400
      8 C2           0.6960     0.1070     1.9460 cc         1 OXG       0.784800
      9 N2           1.2820     0.1710     3.1170 nv         1 OXG      -1.025200
     10 N3           1.5070     0.0960     0.9160 nd         1 OXG      -0.784000
     11 C4           0.7470     0.0280    -0.2320 cd         1 OXG       0.628000
     12 O8           0.4080    -0.1090    -3.5500 o          1 OXG      -0.422100
     13 H1          -1.1430     0.1160     2.8510 hn         1 OXG       0.332500
     14 H21          2.2820     0.0340     3.0480 hn         1 OXG       0.523500
     15 H22          0.8420    -0.3400     3.8710 hn         1 OXG       0.523500
@<TRIPOS>BOND
     1     1     2 1   
     2     1    11 2   
     3     2     3 1   
     4     2    12 2   
     5     3     4 2   
     6     4     5 1   
     7     4    11 1   
     8     5     6 2   
     9     5     7 1   
    10     7     8 1   
    11     7    13 1   
    12     8     9 1   
    13     8    10 2   
    14     9    14 1   
    15     9    15 1   
    16    10    11 1   
@<TRIPOS>SUBSTRUCTURE
     1 OXG         1 TEMP              0 ****  ****    0 ROOT
