@<TRIPOS>MOLECULE
OXI
   29    31     1     0     0
SMALL
No Charge or Current Charge


@<TRIPOS>ATOM
      1 C1          -4.3310    -4.2070    -2.0380 c          1 OXI       0.726200
      2 O1          -4.1590    -5.2500    -1.4240 o          1 OXI      -0.713500
      3 C3          -3.4090    -3.0730    -1.7650 cc         1 OXI      -0.291400
      4 C2          -2.4140    -3.2680    -0.8110 cd         1 OXI       0.011000
      5 N1          -1.4320    -2.2670    -0.6590 na         1 OXI      -0.651200
      6 C4          -3.5330    -1.8200    -2.5260 c          1 OXI       0.592900
      7 O4          -4.2110    -1.6580    -3.5350 o          1 OXI      -0.547100
      8 C10         -2.8000    -0.6800    -1.9380 ca         1 OXI      -0.222600
      9 C9          -1.8230    -0.9450    -0.9610 ca         1 OXI       0.336000
     10 C8          -1.1890     0.1500    -0.3180 ca         1 OXI      -0.188000
     11 C5          -3.1190     0.6490    -2.3150 ca         1 OXI      -0.009000
     12 C7          -1.5290     1.4500    -0.7000 ca         1 OXI       0.093100
     13 C6          -2.4530     1.6930    -1.6690 ca         1 OXI      -0.026900
     14 O6          -2.6460     3.0200    -1.8840 os         1 OXI      -0.351100
     15 O7          -1.0120     2.5890    -0.1780 os         1 OXI      -0.359100
     16 C11         -1.6690     3.6390    -0.9730 c5         1 OXI       0.381600
     17 C12         -0.0880    -2.5620    -0.1010 c3         1 OXI       0.221800
     18 C13         -0.0970    -2.7470     1.4290 c3         1 OXI      -0.115100
     19 O2          -5.2520    -4.0880    -2.8290 o          1 OXI      -0.713500
     20 H2          -2.2610    -4.2080    -0.2790 h4         1 OXI       0.223000
     21 H8          -0.4440     0.0100     0.4560 ha         1 OXI       0.125000
     22 H5          -3.8760     0.8650    -3.0660 ha         1 OXI       0.152000
     23 H111        -0.9120     4.1680    -1.5640 h2         1 OXI       0.049200
     24 H112        -2.1830     4.3400    -0.3040 h2         1 OXI       0.049200
     25 H121         0.2820    -3.4880    -0.5610 h1         1 OXI       0.050700
     26 H122         0.6220    -1.7700    -0.3760 h1         1 OXI       0.050700
     27 H131        -0.4650    -1.8460     1.9330 hc         1 OXI       0.042033
     28 H132        -0.7400    -3.5880     1.7130 hc         1 OXI       0.042033
     29 H133         0.9170    -2.9530     1.7910 hc         1 OXI       0.042033
@<TRIPOS>BOND
     1     1     2 1   
     2     1     3 1   
     3     1    19 1   
     4     3     4 2   
     5     3     6 1   
     6     4     5 1   
     7     4    20 1   
     8     5     9 1   
     9     5    17 1   
    10     6     7 2   
    11     6     8 1   
    12     8     9 ar  
    13     8    11 ar  
    14     9    10 ar  
    15    10    12 ar  
    16    10    21 1   
    17    11    13 ar  
    18    11    22 1   
    19    12    13 ar  
    20    12    15 1   
    21    13    14 1   
    22    14    16 1   
    23    15    16 1   
    24    16    23 1   
    25    16    24 1   
    26    17    18 1   
    27    17    25 1   
    28    17    26 1   
    29    18    27 1   
    30    18    28 1   
    31    18    29 1   
@<TRIPOS>SUBSTRUCTURE
     1 OXI         1 TEMP              0 ****  ****    0 ROOT
