@<TRIPOS>MOLECULE
OXI
   29    31     1     0     0
SMALL
abcg2


@<TRIPOS>ATOM
      1 C1          -4.0840    -4.3770    -2.2890 c          1 OXI       0.726200
      2 O1          -3.6410    -5.4430    -1.8080 o          1 OXI      -0.713500
      3 C3          -3.3590    -3.1050    -1.8740 cc         1 OXI      -0.291400
      4 C2          -2.1960    -3.2570    -1.1780 cd         1 OXI       0.011000
      5 N1          -1.3920    -2.2650    -0.7580 na         1 OXI      -0.651200
      6 C4          -3.8130    -1.7660    -2.1780 c          1 OXI       0.592900
      7 O4          -4.8530    -1.4810    -2.7750 o          1 OXI      -0.547100
      8 C10         -2.9270    -0.6880    -1.7020 ca         1 OXI      -0.222600
      9 C9          -1.7360    -0.9530    -1.0080 ca         1 OXI       0.336000
     10 C8          -0.8990     0.1020    -0.5750 ca         1 OXI      -0.188000
     11 C5          -3.3070     0.6470    -1.9720 ca         1 OXI      -0.009000
     12 C7          -1.3050     1.3710    -0.8610 ca         1 OXI       0.093100
     13 C6          -2.4900     1.6450    -1.5450 ca         1 OXI      -0.026900
     14 O6          -2.6250     2.9850    -1.6810 os         1 OXI      -0.351100
     15 O7          -0.6830     2.5260    -0.5630 os         1 OXI      -0.359100
     16 C11         -1.5170     3.5840    -1.0280 c5         1 OXI       0.381600
     17 C12         -0.2120    -2.6080     0.0360 c3         1 OXI       0.221800
     18 C13         -0.4460    -2.4600     1.5300 c3         1 OXI      -0.115100
     19 O2          -5.0410    -4.2710    -3.0750 o          1 OXI      -0.713500
     20 H2          -1.8600    -4.2550    -0.9330 h4         1 OXI       0.223000
     21 H8           0.0250    -0.0680    -0.0420 ha         1 OXI       0.125000
     22 H5          -4.2250     0.8480    -2.5060 ha         1 OXI       0.152000
     23 H111        -0.9590     4.2050    -1.7320 h2         1 OXI       0.049200
     24 H112        -1.8590     4.1810    -0.1790 h2         1 OXI       0.049200
     25 H121         0.0410    -3.6400    -0.1990 h1         1 OXI       0.050700
     26 H122         0.6330    -2.0070    -0.2990 h1         1 OXI       0.050700
     27 H131        -0.7220    -1.4440     1.8070 hc         1 OXI       0.042033
     28 H132        -1.2390    -3.1290     1.8630 hc         1 OXI       0.042033
     29 H133         0.4650    -2.7190     2.0700 hc         1 OXI       0.042033
@<TRIPOS>BOND
     1     1     2 1   
     2     1     3 1   
     3     1    19 1   
     4     3     4 2   
     5     3     6 1   
     6     4     5 1   
     7     4    20 1   
     8     5     9 1   
     9     5    17 1   
    10     6     7 2   
    11     6     8 1   
    12     8     9 ar  
    13     8    11 ar  
    14     9    10 ar  
    15    10    12 ar  
    16    10    21 1   
    17    11    13 ar  
    18    11    22 1   
    19    12    13 ar  
    20    12    15 1   
    21    13    14 1   
    22    14    16 1   
    23    15    16 1   
    24    16    23 1   
    25    16    24 1   
    26    17    18 1   
    27    17    25 1   
    28    17    26 1   
    29    18    27 1   
    30    18    28 1   
    31    18    29 1   
@<TRIPOS>SUBSTRUCTURE
     1 OXI         1 TEMP              0 ****  ****    0 ROOT
