@<TRIPOS>MOLECULE
OXJ
   26    26     1     0     0
SMALL
No Charge or Current Charge


@<TRIPOS>ATOM
      1 CBQ         -0.6190     5.2540    -0.3380 c3         1 OXJ       0.144100
      2 CBR         -0.5450     3.0090     0.7380 c3         1 OXJ       0.202100
      3 CBS         -0.2960     1.5340     0.4550 ca         1 OXJ      -0.097300
      4 CBT         -1.3760     0.6390     0.3410 ca         1 OXJ      -0.025000
      5 CBU         -1.1500    -0.7290     0.0830 ca         1 OXJ      -0.207300
      6 CBV          0.1750    -1.1900    -0.0730 ca         1 OXJ      -0.013000
      7 CBW          1.2670    -0.3050     0.0480 ca         1 OXJ      -0.207300
      8 CBX          1.0200     1.0600     0.3070 ca         1 OXJ      -0.025000
      9 CBY          2.7000    -0.8190    -0.1320 c3         1 OXJ       0.359800
     10 CBZ         -2.3270    -1.7010    -0.0590 c3         1 OXJ       0.359800
     11 FCA          3.6090    -0.0600     0.5230 f          1 OXJ      -0.110667
     12 FCB          2.8520    -2.0820     0.3270 f          1 OXJ      -0.110667
     13 FCC          3.0580    -0.8260    -1.4350 f          1 OXJ      -0.110667
     14 FCD         -2.7150    -1.8160    -1.3480 f          1 OXJ      -0.110667
     15 FCE         -2.0190    -2.9450     0.3740 f          1 OXJ      -0.110667
     16 FCF         -3.4110    -1.3060     0.6470 f          1 OXJ      -0.110667
     17 NBO         -0.3760     3.8060    -0.4910 n7         1 OXJ      -0.863400
     18 H36         -0.4660     5.7750    -1.2930 h1         1 OXJ       0.034033
     19 H37         -1.6480     5.4470    -0.0060 h1         1 OXJ       0.034033
     20 H38          0.0680     5.6910     0.4010 h1         1 OXJ       0.034033
     21 H39         -1.5590     3.1350     1.1420 h1         1 OXJ       0.043700
     22 H40          0.1570     3.3460     1.5140 h1         1 OXJ       0.043700
     23 H41         -2.3920     1.0160     0.4480 ha         1 OXJ       0.142000
     24 H42          0.3570    -2.2410    -0.2950 ha         1 OXJ       0.148000
     25 H43          1.8470     1.7640     0.3850 ha         1 OXJ       0.142000
     26 H2          -1.0320     3.4420    -1.1930 hn         1 OXJ       0.414000
@<TRIPOS>BOND
     1     1    17 1   
     2     1    18 1   
     3     1    19 1   
     4     1    20 1   
     5     2     3 1   
     6     2    17 1   
     7     2    21 1   
     8     2    22 1   
     9     3     4 ar  
    10     3     8 ar  
    11     4     5 ar  
    12     4    23 1   
    13     5     6 ar  
    14     5    10 1   
    15     6     7 ar  
    16     6    24 1   
    17     7     8 ar  
    18     7     9 1   
    19     8    25 1   
    20     9    11 1   
    21     9    12 1   
    22     9    13 1   
    23    10    14 1   
    24    10    15 1   
    25    10    16 1   
    26    17    26 1   
@<TRIPOS>SUBSTRUCTURE
     1 OXJ         1 TEMP              0 ****  ****    0 ROOT
