@<TRIPOS>MOLECULE
OXJ
   26    26     1     0     0
SMALL
abcg2


@<TRIPOS>ATOM
      1 CBQ         -0.2600     5.2180    -0.1610 c3         1 OXJ       0.144100
      2 CBR         -0.8520     2.9570     0.4230 c3         1 OXJ       0.202100
      3 CBS         -0.4980     1.5020     0.2580 ca         1 OXJ      -0.097300
      4 CBT         -1.4810     0.5250     0.3520 ca         1 OXJ      -0.025000
      5 CBU         -1.1550    -0.8200     0.2440 ca         1 OXJ      -0.207300
      6 CBV          0.1580    -1.2120     0.0260 ca         1 OXJ      -0.013000
      7 CBW          1.1390    -0.2370    -0.0740 ca         1 OXJ      -0.207300
      8 CBX          0.8170     1.1090     0.0420 ca         1 OXJ      -0.025000
      9 CBY          2.5730    -0.6080    -0.2920 c3         1 OXJ       0.359800
     10 CBZ         -2.2480    -1.8430     0.3050 c3         1 OXJ       0.359800
     11 FCA          3.3360    -0.2480     0.7500 f          1 OXJ      -0.110667
     12 FCB          2.7470    -1.9200    -0.4700 f          1 OXJ      -0.110667
     13 FCC          3.0840     0.0070    -1.3670 f          1 OXJ      -0.110667
     14 FCD         -2.8740    -1.9620    -0.8740 f          1 OXJ      -0.110667
     15 FCE         -1.7930    -3.0570     0.6280 f          1 OXJ      -0.110667
     16 FCF         -3.1840    -1.5200     1.2060 f          1 OXJ      -0.110667
     17 NBO         -0.0470     3.8090    -0.4220 n7         1 OXJ      -0.863400
     18 H36          0.3340     5.8120    -0.8540 h1         1 OXJ       0.034033
     19 H37         -1.3060     5.5410    -0.2510 h1         1 OXJ       0.034033
     20 H38          0.0720     5.4600     0.8510 h1         1 OXJ       0.034033
     21 H39         -1.9350     3.0830     0.2700 h1         1 OXJ       0.043700
     22 H40         -0.6630     3.2420     1.4640 h1         1 OXJ       0.043700
     23 H41         -2.5080     0.8300     0.5120 ha         1 OXJ       0.142000
     24 H42          0.4090    -2.2590    -0.0670 ha         1 OXJ       0.148000
     25 H43          1.5800     1.8730    -0.0370 ha         1 OXJ       0.142000
     26 H2          -0.2660     3.6150    -1.3920 hn         1 OXJ       0.414000
@<TRIPOS>BOND
     1     1    17 1   
     2     1    18 1   
     3     1    19 1   
     4     1    20 1   
     5     2     3 1   
     6     2    17 1   
     7     2    21 1   
     8     2    22 1   
     9     3     4 ar  
    10     3     8 ar  
    11     4     5 ar  
    12     4    23 1   
    13     5     6 ar  
    14     5    10 1   
    15     6     7 ar  
    16     6    24 1   
    17     7     8 ar  
    18     7     9 1   
    19     8    25 1   
    20     9    11 1   
    21     9    12 1   
    22     9    13 1   
    23    10    14 1   
    24    10    15 1   
    25    10    16 1   
    26    17    26 1   
@<TRIPOS>SUBSTRUCTURE
     1 OXJ         1 TEMP              0 ****  ****    0 ROOT
