@<TRIPOS>MOLECULE
OXL
    6     5     1     0     0
SMALL
No Charge or Current Charge


@<TRIPOS>ATOM
      1 C1           0.8460     0.0160    -0.0040 c          1 OXL       0.589000
      2 C2          -0.8370    -0.0110    -0.0250 c          1 OXL       0.589000
      3 O1           1.4650    -1.0140     0.2720 o          1 OXL      -0.794500
      4 O2          -1.4230    -1.0450    -0.3510 o          1 OXL      -0.794500
      5 O3           1.4390     1.0650    -0.2650 o          1 OXL      -0.794500
      6 O4          -1.4630     1.0040     0.2850 o          1 OXL      -0.794500
@<TRIPOS>BOND
     1     1     2 1   
     2     1     3 1   
     3     1     5 1   
     4     2     4 1   
     5     2     6 1   
@<TRIPOS>SUBSTRUCTURE
     1 OXL         1 TEMP              0 ****  ****    0 ROOT
