@<TRIPOS>MOLECULE
OXL
    6     5     1     0     0
SMALL
abcg2


@<TRIPOS>ATOM
      1 C1           0.7890     0.0190    -0.0050 c          1 OXL       0.589000
      2 C2          -0.7800    -0.0140    -0.0240 c          1 OXL       0.589000
      3 O1           1.3770    -1.0810     0.0160 o          1 OXL      -0.794500
      4 O2          -1.3210    -1.1360    -0.0990 o          1 OXL      -0.794500
      5 O3           1.3310     1.1430    -0.0130 o          1 OXL      -0.794500
      6 O4          -1.3690     1.0840     0.0370 o          1 OXL      -0.794500
@<TRIPOS>BOND
     1     1     2 1   
     2     1     3 1   
     3     1     5 1   
     4     2     4 1   
     5     2     6 1   
@<TRIPOS>SUBSTRUCTURE
     1 OXL         1 TEMP              0 ****  ****    0 ROOT
