@<TRIPOS>MOLECULE
OXM
    8     7     1     0     0
SMALL
bcc


@<TRIPOS>ATOM
      1 C1          25.0110    23.5280    41.4010 c          1 OXM       0.509100
      2 N1          26.0740    24.3300    41.5540 nt         1 OXM      -0.686000
      3 O1          24.2200    23.6200    40.4730 o          1 OXM      -0.659100
      4 C2          24.8680    22.4530    42.5260 c          1 OXM       0.875600
      5 O2          23.8990    21.6940    42.4140 o          1 OXM      -0.808800
      6 O3          25.7440    22.4800    43.4100 o          1 OXM      -0.808800
      7 HN1         26.2830    25.0560    40.8900 hn         1 OXM       0.289000
      8 HN2         26.6870    24.1910    42.3390 hn         1 OXM       0.289000
@<TRIPOS>BOND
     1     1     2 1   
     2     1     3 2   
     3     1     4 1   
     4     2     7 1   
     5     2     8 1   
     6     4     5 1   
     7     4     6 1   
@<TRIPOS>SUBSTRUCTURE
     1 OXM         1 TEMP              0 ****  ****    0 ROOT
