@<TRIPOS>MOLECULE
OXM
    8     7     1     0     0
SMALL
No Charge or Current Charge


@<TRIPOS>ATOM
      1 C1          25.0230    23.5430    41.3910 c          1 OXM       0.442100
      2 N1          26.1010    24.3750    41.5200 nt         1 OXM      -0.619000
      3 O1          24.2670    23.6920    40.4320 o          1 OXM      -0.659100
      4 C2          24.8430    22.4010    42.5620 c          1 OXM       0.665000
      5 O2          23.8890    21.6270    42.4930 o          1 OXM      -0.703500
      6 O3          25.6720    22.3590    43.4710 o          1 OXM      -0.703500
      7 HN1         26.2650    25.0960    40.8330 hn         1 OXM       0.289000
      8 HN2         26.7260    24.2580    42.3060 hn         1 OXM       0.289000
@<TRIPOS>BOND
     1     1     2 1   
     2     1     3 2   
     3     1     4 1   
     4     2     7 1   
     5     2     8 1   
     6     4     5 1   
     7     4     6 1   
@<TRIPOS>SUBSTRUCTURE
     1 OXM         1 TEMP              0 ****  ****    0 ROOT
