@<TRIPOS>MOLECULE
OXN
  107   107     1     0     0
SMALL
abcg2


@<TRIPOS>ATOM
      1 C5         -11.6800   -12.6220     7.4790 c3         1 OXN      -0.054400
      2 C1         -10.5010   -13.6040     7.6660 c3         1 OXN      -0.038000
      3 C3         -11.1180   -15.0070     7.5640 c3         1 OXN      -0.083767
      4 C4          -9.8180   -13.4890     9.0300 c3         1 OXN      -0.083767
      5 C2          -9.4420   -13.4840     6.5690 c3         1 OXN      -0.083767
      6 C6         -11.5580   -11.0800     7.5840 c3         1 OXN       0.016300
      7 C9         -10.5590   -10.5170     6.5830 ca         1 OXN      -0.100300
      8 C8         -12.9520   -10.5210     7.2400 c3         1 OXN      -0.085100
      9 C7         -11.2630   -10.6300     9.0170 c3         1 OXN      -0.085100
     10 C10        -10.7400   -10.7320     5.2200 ca         1 OXN      -0.079000
     11 C11         -9.8600   -10.2490     4.2630 ca         1 OXN      -0.170500
     12 C12         -8.7430    -9.5170     4.6580 ca         1 OXN       0.145100
     13 C13         -8.5450    -9.2800     6.0150 ca         1 OXN      -0.170500
     14 C14         -9.4410    -9.7720     6.9520 ca         1 OXN      -0.079000
     15 O15         -7.8220    -9.0110     3.8080 os         1 OXN      -0.333100
     16 C16         -8.0870    -9.0980     2.4210 c3         1 OXN       0.156600
     17 C17         -6.9480    -8.4860     1.6510 c3         1 OXN       0.158600
     18 O18         -6.8670    -7.1070     1.8970 os         1 OXN      -0.422000
     19 C19         -5.9110    -6.4840     1.0760 c3         1 OXN       0.159600
     20 C20         -5.7410    -5.0370     1.4600 c3         1 OXN       0.162600
     21 O21         -6.9210    -4.3180     1.2160 os         1 OXN      -0.434000
     22 C22         -6.7530    -2.9360     1.4050 c3         1 OXN       0.159600
     23 C23         -8.0720    -2.2280     1.2270 c3         1 OXN       0.162600
     24 O24         -8.9240    -2.5450     2.2960 os         1 OXN      -0.431000
     25 C25        -10.2380    -2.0880     2.1120 c3         1 OXN       0.161600
     26 C26        -11.0350    -2.3130     3.3710 c3         1 OXN       0.163600
     27 O27        -11.0910    -3.6850     3.6600 os         1 OXN      -0.418000
     28 C28        -11.8260    -3.9650     4.8230 c3         1 OXN       0.163600
     29 C29        -11.7180    -5.4310     5.1560 c3         1 OXN       0.163600
     30 O30        -12.3090    -6.1980     4.1430 os         1 OXN      -0.432000
     31 C31        -12.2190    -7.5800     4.3830 c3         1 OXN       0.158600
     32 C32        -12.6770    -8.3370     3.1630 c3         1 OXN       0.164600
     33 O33        -11.7520    -8.1560     2.1250 os         1 OXN      -0.436000
     34 C34        -12.1580    -8.7150     0.9050 c3         1 OXN       0.153600
     35 C35        -11.0900    -8.4530    -0.1280 c3         1 OXN       0.167600
     36 O36        -10.9660    -7.0680    -0.3330 os         1 OXN      -0.426000
     37 C37         -9.6730    -6.6550    -0.6900 c3         1 OXN       0.168600
     38 C38         -9.6440    -5.1580    -0.8390 c3         1 OXN       0.154600
     39 O39        -10.4450    -4.7670    -1.9250 os         1 OXN      -0.435000
     40 C40        -10.4540    -3.3760    -2.1150 c3         1 OXN       0.166600
     41 C41        -11.3000    -3.0270    -3.3110 c3         1 OXN       0.162600
     42 O42        -12.6430    -3.3460    -3.0540 os         1 OXN      -0.427000
     43 C43        -13.4880    -3.0420    -4.1350 c3         1 OXN       0.160600
     44 C44        -14.9100    -3.4050    -3.7940 c3         1 OXN       0.165600
     45 O45        -15.0170    -4.8020    -3.6440 oh         1 OXN      -0.702000
     46 H51        -12.4540   -12.9110     8.2010 hc         1 OXN       0.034200
     47 H52        -12.1060   -12.8450     6.4940 hc         1 OXN       0.034200
     48 H31        -11.6020   -15.1560     6.5950 hc         1 OXN       0.032144
     49 H32        -11.8700   -15.1710     8.3390 hc         1 OXN       0.032144
     50 H33        -10.3520   -15.7780     7.6740 hc         1 OXN       0.032144
     51 H41        -10.5400   -13.4960     9.8500 hc         1 OXN       0.032144
     52 H42         -9.1380   -14.3320     9.1810 hc         1 OXN       0.032144
     53 H43         -9.2200   -12.5820     9.1150 hc         1 OXN       0.032144
     54 H21         -8.7200   -14.3000     6.6600 hc         1 OXN       0.032144
     55 H22         -9.8890   -13.5470     5.5750 hc         1 OXN       0.032144
     56 H23         -8.8890   -12.5470     6.6210 hc         1 OXN       0.032144
     57 H81        -13.2820   -10.8150     6.2430 hc         1 OXN       0.034033
     58 H82        -12.9570    -9.4310     7.2820 hc         1 OXN       0.034033
     59 H83        -13.6970   -10.8870     7.9520 hc         1 OXN       0.034033
     60 H71        -11.3710    -9.5480     9.1140 hc         1 OXN       0.034033
     61 H72        -11.9750   -11.0930     9.7030 hc         1 OXN       0.034033
     62 H73        -10.2660   -10.8910     9.3660 hc         1 OXN       0.034033
     63 H10        -11.5930   -11.3020     4.8700 ha         1 OXN       0.108500
     64 H11        -10.0730   -10.4450     3.2220 ha         1 OXN       0.122500
     65 H13         -7.6830    -8.7080     6.3370 ha         1 OXN       0.122500
     66 H14         -9.2400    -9.5590     7.9940 ha         1 OXN       0.108500
     67 H161        -8.1750   -10.1430     2.1020 h1         1 OXN       0.051200
     68 H162        -9.0330    -8.5960     2.1860 h1         1 OXN       0.051200
     69 H171        -7.1330    -8.6890     0.5870 h1         1 OXN       0.026700
     70 H172        -6.0050    -8.9900     1.9080 h1         1 OXN       0.026700
     71 H191        -4.9310    -6.9700     1.1760 h1         1 OXN       0.024700
     72 H192        -6.1980    -6.5600     0.0170 h1         1 OXN       0.024700
     73 H201        -4.9040    -4.6380     0.8690 h1         1 OXN       0.028700
     74 H202        -5.4450    -4.9600     2.5160 h1         1 OXN       0.028700
     75 H221        -6.3500    -2.7190     2.4060 h1         1 OXN       0.027700
     76 H222        -6.0370    -2.5230     0.6810 h1         1 OXN       0.027700
     77 H231        -8.5140    -2.5150     0.2620 h1         1 OXN       0.023700
     78 H232        -7.8830    -1.1460     1.1780 h1         1 OXN       0.023700
     79 H251       -10.2630    -1.0130     1.8850 h1         1 OXN       0.028200
     80 H252       -10.7150    -2.6020     1.2640 h1         1 OXN       0.028200
     81 H261       -12.0400    -1.8940     3.2170 h1         1 OXN       0.022700
     82 H262       -10.5830    -1.7540     4.2030 h1         1 OXN       0.022700
     83 H281       -11.4410    -3.3970     5.6830 h1         1 OXN       0.022700
     84 H282       -12.8810    -3.6800     4.7020 h1         1 OXN       0.022700
     85 H291       -12.2120    -5.5960     6.1250 h1         1 OXN       0.028200
     86 H292       -10.6610    -5.7050     5.2890 h1         1 OXN       0.028200
     87 H311       -11.1910    -7.8750     4.6360 h1         1 OXN       0.031700
     88 H312       -12.8520    -7.8760     5.2320 h1         1 OXN       0.031700
     89 H321       -13.6790    -7.9920     2.8640 h1         1 OXN       0.023700
     90 H322       -12.7750    -9.3980     3.4320 h1         1 OXN       0.023700
     91 H341       -12.3070    -9.8010     0.9830 h1         1 OXN       0.026200
     92 H342       -13.1160    -8.2870     0.5750 h1         1 OXN       0.026200
     93 H351       -11.3570    -8.9720    -1.0590 h1         1 OXN       0.022700
     94 H352       -10.1420    -8.8900     0.2140 h1         1 OXN       0.022700
     95 H371        -8.9490    -6.9190     0.0920 h1         1 OXN       0.026700
     96 H372        -9.3380    -7.1330    -1.6210 h1         1 OXN       0.026700
     97 H381        -8.6010    -4.8480    -0.9820 h1         1 OXN       0.040700
     98 H382        -9.9840    -4.6890     0.0960 h1         1 OXN       0.040700
     99 H401       -10.8360    -2.8580    -1.2220 h1         1 OXN       0.021200
    100 H402        -9.4380    -2.9940    -2.2910 h1         1 OXN       0.021200
    101 H411       -10.9300    -3.5610    -4.1990 h1         1 OXN       0.023200
    102 H412       -11.1790    -1.9540    -3.5150 h1         1 OXN       0.023200
    103 H431       -13.4550    -1.9690    -4.3720 h1         1 OXN       0.023700
    104 H432       -13.1710    -3.5770    -5.0430 h1         1 OXN       0.023700
    105 H441       -15.5470    -3.0310    -4.6060 h1         1 OXN       0.021200
    106 H442       -15.2120    -2.8720    -2.8820 h1         1 OXN       0.021200
    107 H45        -15.9310    -5.0120    -3.4360 ho         1 OXN       0.498000
@<TRIPOS>BOND
     1     1     2 1   
     2     1     6 1   
     3     1    46 1   
     4     1    47 1   
     5     2     3 1   
     6     2     4 1   
     7     2     5 1   
     8     3    48 1   
     9     3    49 1   
    10     3    50 1   
    11     4    51 1   
    12     4    52 1   
    13     4    53 1   
    14     5    54 1   
    15     5    55 1   
    16     5    56 1   
    17     6     7 1   
    18     6     8 1   
    19     6     9 1   
    20     7    10 ar  
    21     7    14 ar  
    22     8    57 1   
    23     8    58 1   
    24     8    59 1   
    25     9    60 1   
    26     9    61 1   
    27     9    62 1   
    28    10    11 ar  
    29    10    63 1   
    30    11    12 ar  
    31    11    64 1   
    32    12    13 ar  
    33    12    15 1   
    34    13    14 ar  
    35    13    65 1   
    36    14    66 1   
    37    15    16 1   
    38    16    17 1   
    39    16    67 1   
    40    16    68 1   
    41    17    18 1   
    42    17    69 1   
    43    17    70 1   
    44    18    19 1   
    45    19    20 1   
    46    19    71 1   
    47    19    72 1   
    48    20    21 1   
    49    20    73 1   
    50    20    74 1   
    51    21    22 1   
    52    22    23 1   
    53    22    75 1   
    54    22    76 1   
    55    23    24 1   
    56    23    77 1   
    57    23    78 1   
    58    24    25 1   
    59    25    26 1   
    60    25    79 1   
    61    25    80 1   
    62    26    27 1   
    63    26    81 1   
    64    26    82 1   
    65    27    28 1   
    66    28    29 1   
    67    28    83 1   
    68    28    84 1   
    69    29    30 1   
    70    29    85 1   
    71    29    86 1   
    72    30    31 1   
    73    31    32 1   
    74    31    87 1   
    75    31    88 1   
    76    32    33 1   
    77    32    89 1   
    78    32    90 1   
    79    33    34 1   
    80    34    35 1   
    81    34    91 1   
    82    34    92 1   
    83    35    36 1   
    84    35    93 1   
    85    35    94 1   
    86    36    37 1   
    87    37    38 1   
    88    37    95 1   
    89    37    96 1   
    90    38    39 1   
    91    38    97 1   
    92    38    98 1   
    93    39    40 1   
    94    40    41 1   
    95    40    99 1   
    96    40   100 1   
    97    41    42 1   
    98    41   101 1   
    99    41   102 1   
   100    42    43 1   
   101    43    44 1   
   102    43   103 1   
   103    43   104 1   
   104    44    45 1   
   105    44   105 1   
   106    44   106 1   
   107    45   107 1   
@<TRIPOS>SUBSTRUCTURE
     1 OXN         1 TEMP              0 ****  ****    0 ROOT
