@<TRIPOS>MOLECULE
OXN
  107   107     1     0     0
SMALL
No Charge or Current Charge


@<TRIPOS>ATOM
      1 C5         -11.8040   -12.6260     7.4540 c3         1 OXN      -0.054400
      2 C1         -10.7040   -13.7060     7.7740 c3         1 OXN      -0.038000
      3 C3         -11.1950   -15.0590     7.1860 c3         1 OXN      -0.083767
      4 C4         -10.5120   -13.9120     9.3040 c3         1 OXN      -0.083767
      5 C2          -9.3380   -13.3670     7.1230 c3         1 OXN      -0.083767
      6 C6         -11.5100   -11.0150     7.6400 c3         1 OXN       0.016300
      7 C9         -10.4610   -10.4590     6.6050 ca         1 OXN      -0.100300
      8 C8         -12.8240   -10.1800     7.3580 c3         1 OXN      -0.085100
      9 C7         -11.1110   -10.6350     9.1190 c3         1 OXN      -0.085100
     10 C10        -10.6400   -10.7320     5.2290 ca         1 OXN      -0.079000
     11 C11         -9.7380   -10.2520     4.2650 ca         1 OXN      -0.170500
     12 C12         -8.6290    -9.4760     4.6570 ca         1 OXN       0.145100
     13 C13         -8.4390    -9.1960     6.0160 ca         1 OXN      -0.170500
     14 C14         -9.3430    -9.6710     6.9810 ca         1 OXN      -0.079000
     15 O15         -7.7140    -8.9730     3.7560 os         1 OXN      -0.333100
     16 C16         -7.9580    -8.9970     2.3350 c3         1 OXN       0.156600
     17 C17         -6.7340    -8.4150     1.5950 c3         1 OXN       0.158600
     18 O18         -6.6640    -6.9950     1.8290 os         1 OXN      -0.422000
     19 C19         -5.6420    -6.3210     1.0700 c3         1 OXN       0.159600
     20 C20         -5.5890    -4.8300     1.4830 c3         1 OXN       0.162600
     21 O21         -6.8000    -4.1730     1.0600 os         1 OXN      -0.434000
     22 C22         -6.8100    -2.7490     1.2770 c3         1 OXN       0.159600
     23 C23         -8.2180    -2.2030     0.9460 c3         1 OXN       0.162600
     24 O24         -9.0950    -2.4800     2.0540 os         1 OXN      -0.431000
     25 C25        -10.4870    -2.2010     1.8060 c3         1 OXN       0.161600
     26 C26        -11.2820    -2.3530     3.1270 c3         1 OXN       0.163600
     27 O27        -11.2520    -3.7310     3.5460 os         1 OXN      -0.418000
     28 C28        -12.0260    -4.0130     4.7290 c3         1 OXN       0.163600
     29 C29        -11.8280    -5.4970     5.1230 c3         1 OXN       0.163600
     30 O30        -12.4120    -6.3360     4.1080 os         1 OXN      -0.432000
     31 C31        -12.2880    -7.7490     4.3590 c3         1 OXN       0.158600
     32 C32        -12.7390    -8.5220     3.0960 c3         1 OXN       0.164600
     33 O33        -11.7160    -8.3920     2.0910 os         1 OXN      -0.436000
     34 C34        -12.0740    -8.8890     0.7870 c3         1 OXN       0.153600
     35 C35        -10.8740    -8.6790    -0.1690 c3         1 OXN       0.167600
     36 O36        -10.6470    -7.2650    -0.3260 os         1 OXN      -0.426000
     37 C37         -9.4380    -6.9190    -1.0270 c3         1 OXN       0.168600
     38 C38         -9.3230    -5.3780    -1.0980 c3         1 OXN       0.154600
     39 O39        -10.2550    -4.8830    -2.0810 os         1 OXN      -0.435000
     40 C40        -10.2500    -3.4520    -2.2420 c3         1 OXN       0.166600
     41 C41        -11.2640    -3.0580    -3.3440 c3         1 OXN       0.162600
     42 O42        -12.6040    -3.2130    -2.8340 os         1 OXN      -0.427000
     43 C43        -13.6410    -2.8570    -3.7700 c3         1 OXN       0.160600
     44 C44        -15.0280    -3.0590    -3.1020 c3         1 OXN       0.165600
     45 O45        -15.3220    -4.4540    -2.8930 oh         1 OXN      -0.702000
     46 H51        -12.6850   -12.8650     8.0620 hc         1 OXN       0.034200
     47 H52        -12.1400   -12.7800     6.4230 hc         1 OXN       0.034200
     48 H31        -11.3210   -14.9940     6.0990 hc         1 OXN       0.032144
     49 H32        -12.1600   -15.3480     7.6220 hc         1 OXN       0.032144
     50 H33        -10.4790   -15.8640     7.3900 hc         1 OXN       0.032144
     51 H41        -11.4770   -14.0390     9.8090 hc         1 OXN       0.032144
     52 H42         -9.9140   -14.8100     9.5010 hc         1 OXN       0.032144
     53 H43         -9.9850   -13.0800     9.7740 hc         1 OXN       0.032144
     54 H21         -8.6240   -14.1870     7.2680 hc         1 OXN       0.032144
     55 H22         -9.4440   -13.2030     6.0450 hc         1 OXN       0.032144
     56 H23         -8.8960   -12.4700     7.5700 hc         1 OXN       0.032144
     57 H81        -13.2170   -10.3890     6.3560 hc         1 OXN       0.034033
     58 H82        -12.6320    -9.1030     7.4300 hc         1 OXN       0.034033
     59 H83        -13.6080   -10.4360     8.0810 hc         1 OXN       0.034033
     60 H71        -11.1470    -9.5500     9.2800 hc         1 OXN       0.034033
     61 H72        -11.8020   -11.1010     9.8320 hc         1 OXN       0.034033
     62 H73        -10.0970   -10.9680     9.3600 hc         1 OXN       0.034033
     63 H10        -11.4910   -11.3160     4.8900 ha         1 OXN       0.108500
     64 H11         -9.9220   -10.4870     3.2210 ha         1 OXN       0.122500
     65 H13         -7.5870    -8.5960     6.3250 ha         1 OXN       0.122500
     66 H14         -9.1500    -9.4110     8.0170 ha         1 OXN       0.108500
     67 H161        -8.1080   -10.0270     1.9880 h1         1 OXN       0.051200
     68 H162        -8.8510    -8.4110     2.0850 h1         1 OXN       0.051200
     69 H171        -6.8460    -8.6180     0.5220 h1         1 OXN       0.026700
     70 H172        -5.8200    -8.9150     1.9420 h1         1 OXN       0.026700
     71 H191        -4.6620    -6.7730     1.2670 h1         1 OXN       0.024700
     72 H192        -5.8420    -6.3960    -0.0070 h1         1 OXN       0.024700
     73 H201        -4.7170    -4.3660     1.0040 h1         1 OXN       0.028700
     74 H202        -5.4620    -4.7540     2.5710 h1         1 OXN       0.028700
     75 H221        -6.5580    -2.5030     2.3170 h1         1 OXN       0.027700
     76 H222        -6.0750    -2.2620     0.6230 h1         1 OXN       0.027700
     77 H231        -8.5820    -2.6710     0.0220 h1         1 OXN       0.023700
     78 H232        -8.1550    -1.1210     0.7770 h1         1 OXN       0.023700
     79 H251       -10.6120    -1.1740     1.4390 h1         1 OXN       0.028200
     80 H252       -10.8940    -2.8860     1.0510 h1         1 OXN       0.028200
     81 H261       -12.3160    -2.0300     2.9530 h1         1 OXN       0.022700
     82 H262       -10.8450    -1.7010     3.8940 h1         1 OXN       0.022700
     83 H281       -11.6920    -3.3810     5.5620 h1         1 OXN       0.022700
     84 H282       -13.0920    -3.8160     4.5560 h1         1 OXN       0.022700
     85 H291       -12.3130    -5.6760     6.0920 h1         1 OXN       0.028200
     86 H292       -10.7560    -5.7050     5.2340 h1         1 OXN       0.028200
     87 H311       -11.2510    -8.0140     4.6010 h1         1 OXN       0.031700
     88 H312       -12.9220    -8.0410     5.2060 h1         1 OXN       0.031700
     89 H321       -13.6960    -8.1160     2.7430 h1         1 OXN       0.023700
     90 H322       -12.8870    -9.5790     3.3530 h1         1 OXN       0.023700
     91 H341       -12.3090    -9.9600     0.8360 h1         1 OXN       0.026200
     92 H342       -12.9530    -8.3610     0.3940 h1         1 OXN       0.026200
     93 H351       -11.1000    -9.1390    -1.1400 h1         1 OXN       0.022700
     94 H352        -9.9900    -9.1780     0.2450 h1         1 OXN       0.022700
     95 H371        -8.5650    -7.3120    -0.4910 h1         1 OXN       0.026700
     96 H372        -9.4340    -7.3390    -2.0410 h1         1 OXN       0.026700
     97 H381        -8.2960    -5.1130    -1.3790 h1         1 OXN       0.040700
     98 H382        -9.5260    -4.9510    -0.1070 h1         1 OXN       0.040700
     99 H401       -10.5160    -2.9480    -1.3040 h1         1 OXN       0.021200
    100 H402        -9.2520    -3.1080    -2.5430 h1         1 OXN       0.021200
    101 H411       -11.1050    -3.6840    -4.2320 h1         1 OXN       0.023200
    102 H412       -11.0870    -2.0120    -3.6270 h1         1 OXN       0.023200
    103 H431       -13.5410    -1.8040    -4.0640 h1         1 OXN       0.023700
    104 H432       -13.5770    -3.4710    -4.6780 h1         1 OXN       0.023700
    105 H441       -15.7930    -2.6120    -3.7510 h1         1 OXN       0.021200
    106 H442       -15.0490    -2.5150    -2.1490 h1         1 OXN       0.021200
    107 H45        -16.1820    -4.4960    -2.4150 ho         1 OXN       0.498000
@<TRIPOS>BOND
     1     1     2 1   
     2     1     6 1   
     3     1    46 1   
     4     1    47 1   
     5     2     3 1   
     6     2     4 1   
     7     2     5 1   
     8     3    48 1   
     9     3    49 1   
    10     3    50 1   
    11     4    51 1   
    12     4    52 1   
    13     4    53 1   
    14     5    54 1   
    15     5    55 1   
    16     5    56 1   
    17     6     7 1   
    18     6     8 1   
    19     6     9 1   
    20     7    10 ar  
    21     7    14 ar  
    22     8    57 1   
    23     8    58 1   
    24     8    59 1   
    25     9    60 1   
    26     9    61 1   
    27     9    62 1   
    28    10    11 ar  
    29    10    63 1   
    30    11    12 ar  
    31    11    64 1   
    32    12    13 ar  
    33    12    15 1   
    34    13    14 ar  
    35    13    65 1   
    36    14    66 1   
    37    15    16 1   
    38    16    17 1   
    39    16    67 1   
    40    16    68 1   
    41    17    18 1   
    42    17    69 1   
    43    17    70 1   
    44    18    19 1   
    45    19    20 1   
    46    19    71 1   
    47    19    72 1   
    48    20    21 1   
    49    20    73 1   
    50    20    74 1   
    51    21    22 1   
    52    22    23 1   
    53    22    75 1   
    54    22    76 1   
    55    23    24 1   
    56    23    77 1   
    57    23    78 1   
    58    24    25 1   
    59    25    26 1   
    60    25    79 1   
    61    25    80 1   
    62    26    27 1   
    63    26    81 1   
    64    26    82 1   
    65    27    28 1   
    66    28    29 1   
    67    28    83 1   
    68    28    84 1   
    69    29    30 1   
    70    29    85 1   
    71    29    86 1   
    72    30    31 1   
    73    31    32 1   
    74    31    87 1   
    75    31    88 1   
    76    32    33 1   
    77    32    89 1   
    78    32    90 1   
    79    33    34 1   
    80    34    35 1   
    81    34    91 1   
    82    34    92 1   
    83    35    36 1   
    84    35    93 1   
    85    35    94 1   
    86    36    37 1   
    87    37    38 1   
    88    37    95 1   
    89    37    96 1   
    90    38    39 1   
    91    38    97 1   
    92    38    98 1   
    93    39    40 1   
    94    40    41 1   
    95    40    99 1   
    96    40   100 1   
    97    41    42 1   
    98    41   101 1   
    99    41   102 1   
   100    42    43 1   
   101    43    44 1   
   102    43   103 1   
   103    43   104 1   
   104    44    45 1   
   105    44   105 1   
   106    44   106 1   
   107    45   107 1   
@<TRIPOS>SUBSTRUCTURE
     1 OXN         1 TEMP              0 ****  ****    0 ROOT
