@<TRIPOS>MOLECULE
OXP
   13    12     1     0     0
SMALL
No Charge or Current Charge


@<TRIPOS>ATOM
      1 C2           0.2520    -0.0170    -0.1550 c          1 OXP       0.410300
      2 C3          -0.8460     0.0740     0.8790 ce         1 OXP      -0.260200
      3 C5           0.5760    -0.0090     3.0340 c3         1 OXP      -0.045900
      4 O3           1.4430    -0.0940     0.1600 o          1 OXP      -0.560100
      5 C1          -0.2240    -0.0030    -1.7100 c          1 OXP       0.649000
      6 O1          -1.3470    -0.4210    -1.9870 o          1 OXP      -0.700500
      7 O2           0.5570     0.4190    -2.5610 o          1 OXP      -0.700500
      8 C4          -0.7050     0.0780     2.2300 c2         1 OXP      -0.221200
      9 H3          -1.8490     0.1450     0.4570 ha         1 OXP       0.198000
     10 H51          0.3670     0.0150     4.1110 hc         1 OXP       0.032367
     11 H52          1.1160    -0.9400     2.8240 hc         1 OXP       0.032367
     12 H53          1.2440     0.8310     2.8090 hc         1 OXP       0.032367
     13 H4          -1.5980     0.1510     2.8540 ha         1 OXP       0.135000
@<TRIPOS>BOND
     1     1     2 1   
     2     1     4 2   
     3     1     5 1   
     4     2     8 2   
     5     2     9 1   
     6     3     8 1   
     7     3    10 1   
     8     3    11 1   
     9     3    12 1   
    10     5     6 1   
    11     5     7 1   
    12     8    13 1   
@<TRIPOS>SUBSTRUCTURE
     1 OXP         1 TEMP              0 ****  ****    0 ROOT
