@<TRIPOS>MOLECULE
OXP
   13    12     1     0     0
SMALL
bcc


@<TRIPOS>ATOM
      1 C2           0.2070     0.0240    -0.1240 c          1 OXP       0.410300
      2 C3          -0.8770     0.0290     0.8700 ce         1 OXP      -0.210200
      3 C5           0.5800     0.0100     2.9640 c3         1 OXP      -0.045900
      4 O3           1.3830     0.0290     0.1850 o          1 OXP      -0.560100
      5 C1          -0.2000     0.0110    -1.6280 c          1 OXP       0.859600
      6 O1          -1.4210    -0.0180    -1.8630 o          1 OXP      -0.805800
      7 O2           0.7400     0.0290    -2.4340 o          1 OXP      -0.805800
      8 C4          -0.7020     0.0240     2.1990 c2         1 OXP      -0.171200
      9 H3          -1.8870     0.0370     0.4860 ha         1 OXP       0.148000
     10 H51          0.3880    -0.0080     4.0340 hc         1 OXP       0.032367
     11 H52          1.1920    -0.8570     2.7120 hc         1 OXP       0.032367
     12 H53          1.1900     0.8880     2.7440 hc         1 OXP       0.032367
     13 H4          -1.6060     0.0310     2.7990 ha         1 OXP       0.085000
@<TRIPOS>BOND
     1     1     2 1   
     2     1     4 2   
     3     1     5 1   
     4     2     8 2   
     5     2     9 1   
     6     3     8 1   
     7     3    10 1   
     8     3    11 1   
     9     3    12 1   
    10     5     6 1   
    11     5     7 1   
    12     8    13 1   
@<TRIPOS>SUBSTRUCTURE
     1 OXP         1 TEMP              0 ****  ****    0 ROOT
