@<TRIPOS>MOLECULE
OXQ
   10    10     1     0     0
SMALL
No Charge or Current Charge


@<TRIPOS>ATOM
      1 O9           0.5810    -0.0410     2.3280 o          1 OXQ      -0.684000
      2 C6          -0.2140    -0.0900     1.3980 c          1 OXQ       0.642500
      3 O8          -1.4240    -0.1880     1.5740 o          1 OXQ      -0.684000
      4 C2           0.2910    -0.0300    -0.0040 cc         1 OXQ       0.098500
      5 C1          -0.5790    -0.0820    -1.1040 cc         1 OXQ       0.496300
      6 O7          -1.9180    -0.1890    -1.0110 oh         1 OXQ      -0.679300
      7 N3           1.5460     0.0750    -0.4030 nd         1 OXQ      -0.317300
      8 O4           1.4120     0.0860    -1.8350 os         1 OXQ       0.040600
      9 N5           0.0400    -0.0160    -2.2510 nd         1 OXQ      -0.460300
     10 HO7         -2.0650    -0.2150    -0.0260 ho         1 OXQ       0.547000
@<TRIPOS>BOND
     1     1     2 1   
     2     2     3 1   
     3     2     4 1   
     4     4     5 1   
     5     4     7 2   
     6     5     6 1   
     7     5     9 2   
     8     6    10 1   
     9     7     8 1   
    10     8     9 1   
@<TRIPOS>SUBSTRUCTURE
     1 OXQ         1 TEMP              0 ****  ****    0 ROOT
