@<TRIPOS>MOLECULE
OXQ
   10    10     1     0     0
SMALL
bcc


@<TRIPOS>ATOM
      1 O9           0.6350    -0.0370     2.3470 o          1 OXQ      -0.789300
      2 C6          -0.1830    -0.0870     1.4350 c          1 OXQ       0.853100
      3 O8          -1.4380    -0.1900     1.5050 o          1 OXQ      -0.789300
      4 C2           0.2870    -0.0280     0.0060 cc         1 OXQ       0.098500
      5 C1          -0.6040    -0.0820    -1.1100 cc         1 OXQ       0.496300
      6 O7          -1.9090    -0.1870    -1.0280 oh         1 OXQ      -0.640300
      7 N3           1.4860     0.0710    -0.4580 nd         1 OXQ      -0.317300
      8 O4           1.3790     0.0810    -1.7920 os         1 OXQ       0.040600
      9 N5           0.0840    -0.0140    -2.2040 nd         1 OXQ      -0.460300
     10 HO7         -2.0660    -0.2170    -0.0360 ho         1 OXQ       0.508000
@<TRIPOS>BOND
     1     1     2 1   
     2     2     3 1   
     3     2     4 1   
     4     4     5 1   
     5     4     7 2   
     6     5     6 1   
     7     5     9 2   
     8     6    10 1   
     9     7     8 1   
    10     8     9 1   
@<TRIPOS>SUBSTRUCTURE
     1 OXQ         1 TEMP              0 ****  ****    0 ROOT
