@<TRIPOS>MOLECULE
OXR
   50    50     1     0     0
SMALL
No Charge or Current Charge


@<TRIPOS>ATOM
      1 O2          24.9000    -8.7360    40.3720 o          1 OXR      -0.531100
      2 C4          24.1790    -9.3550    41.1460 c          1 OXR       0.572300
      3 C3          24.6960   -10.6080    41.8460 c6         1 OXR      -0.177400
      4 C2          23.5940   -11.6830    41.8910 c6         1 OXR      -0.063400
      5 C1          22.3190   -11.1860    42.6360 c6         1 OXR      -0.014800
      6 C17         22.5660   -11.1350    44.1780 c3         1 OXR      -0.082600
      7 C16         21.1670   -12.2080    42.3720 c3         1 OXR      -0.082600
      8 C5          22.7710    -8.9330    41.4740 ce         1 OXR      -0.190400
      9 C18         22.4410    -7.4740    41.1450 c3         1 OXR      -0.046900
     10 C6          21.9010    -9.7560    42.1580 cf         1 OXR      -0.012200
     11 C7          20.5250    -9.3720    42.5000 cf         1 OXR      -0.189000
     12 C8          19.6270    -8.7820    41.6570 ce         1 OXR      -0.158000
     13 C9          18.2330    -8.4010    41.9630 ce         1 OXR      -0.075200
     14 C19         17.6000    -9.0130    43.2110 c3         1 OXR      -0.053900
     15 C10         17.5500    -7.5820    41.1090 cf         1 OXR      -0.166000
     16 C11         16.1760    -7.1030    41.2470 cf         1 OXR      -0.180000
     17 C12         15.5400    -6.3380    40.3140 ce         1 OXR      -0.164000
     18 C13         14.1630    -5.8110    40.3860 ce         1 OXR      -0.073200
     19 C20         13.3400    -6.1600    41.6230 c3         1 OXR      -0.055900
     20 C14         13.6780    -5.0530    39.3730 c2         1 OXR      -0.204200
     21 C15         12.3010    -4.4330    39.2700 c3         1 OXR       0.197800
     22 O1          12.1900    -3.6990    38.0490 oh         1 OXR      -0.656000
     23 H31         24.9340   -10.3250    42.8780 hc         1 OXR       0.069700
     24 H32         25.6190   -10.9590    41.3670 hc         1 OXR       0.069700
     25 H21         23.9810   -12.5970    42.3630 hc         1 OXR       0.049200
     26 H22         23.3360   -11.9620    40.8590 hc         1 OXR       0.049200
     27 H171        23.2800   -10.3500    44.4520 hc         1 OXR       0.038033
     28 H172        21.6430   -10.9340    44.7340 hc         1 OXR       0.038033
     29 H173        22.9620   -12.0880    44.5500 hc         1 OXR       0.038033
     30 H161        21.4760   -13.2290    42.6300 hc         1 OXR       0.038033
     31 H162        20.2680   -11.9900    42.9600 hc         1 OXR       0.038033
     32 H163        20.8750   -12.2120    41.3140 hc         1 OXR       0.038033
     33 H181        22.0070    -7.3810    40.1430 hc         1 OXR       0.048033
     34 H182        21.7360    -7.0370    41.8610 hc         1 OXR       0.048033
     35 H183        23.3320    -6.8350    41.1740 hc         1 OXR       0.048033
     36 H7          20.2030    -9.6180    43.5110 ha         1 OXR       0.178000
     37 H8          19.9600    -8.5630    40.6420 ha         1 OXR       0.178000
     38 H191        17.7810    -8.3880    44.0930 hc         1 OXR       0.042367
     39 H192        16.5180    -9.1430    43.1080 hc         1 OXR       0.042367
     40 H193        17.9940   -10.0140    43.4210 hc         1 OXR       0.042367
     41 H10         18.0840    -7.2250    40.2260 ha         1 OXR       0.170000
     42 H11         15.6410    -7.3680    42.1590 ha         1 OXR       0.175000
     43 H12         16.0990    -6.0790    39.4130 ha         1 OXR       0.172000
     44 H201        13.8130    -5.7710    42.5320 hc         1 OXR       0.041700
     45 H202        12.3250    -5.7490    41.5910 hc         1 OXR       0.041700
     46 H203        13.2390    -7.2460    41.7360 hc         1 OXR       0.041700
     47 H14         14.3110    -4.8370    38.5120 ha         1 OXR       0.181000
     48 H151        12.1360    -3.7670    40.1280 h1         1 OXR       0.025700
     49 H152        11.5400    -5.2240    39.3080 h1         1 OXR       0.025700
     50 HO1         11.2840    -3.3180    38.0300 ho         1 OXR       0.442000
@<TRIPOS>BOND
     1     1     2 2   
     2     2     3 1   
     3     2     8 1   
     4     3     4 1   
     5     3    23 1   
     6     3    24 1   
     7     4     5 1   
     8     4    25 1   
     9     4    26 1   
    10     5     6 1   
    11     5     7 1   
    12     5    10 1   
    13     6    27 1   
    14     6    28 1   
    15     6    29 1   
    16     7    30 1   
    17     7    31 1   
    18     7    32 1   
    19     8     9 1   
    20     8    10 2   
    21     9    33 1   
    22     9    34 1   
    23     9    35 1   
    24    10    11 1   
    25    11    12 2   
    26    11    36 1   
    27    12    13 1   
    28    12    37 1   
    29    13    14 1   
    30    13    15 2   
    31    14    38 1   
    32    14    39 1   
    33    14    40 1   
    34    15    16 1   
    35    15    41 1   
    36    16    17 2   
    37    16    42 1   
    38    17    18 1   
    39    17    43 1   
    40    18    19 1   
    41    18    20 2   
    42    19    44 1   
    43    19    45 1   
    44    19    46 1   
    45    20    21 1   
    46    20    47 1   
    47    21    22 1   
    48    21    48 1   
    49    21    49 1   
    50    22    50 1   
@<TRIPOS>SUBSTRUCTURE
     1 OXR         1 TEMP              0 ****  ****    0 ROOT
