@<TRIPOS>MOLECULE
OXR
   50    50     1     0     0
SMALL
bcc


@<TRIPOS>ATOM
      1 O2          24.8760    -8.5520    40.6770 o          1 OXR      -0.531100
      2 C4          24.1100    -9.2950    41.2670 c          1 OXR       0.572300
      3 C3          24.5460   -10.6620    41.7120 c6         1 OXR      -0.177400
      4 C2          23.3910   -11.6410    41.7110 c6         1 OXR      -0.063400
      5 C1          22.2040   -11.1520    42.5410 c6         1 OXR      -0.014800
      6 C17         22.5330   -11.2060    44.0410 c3         1 OXR      -0.082600
      7 C16         21.0270   -12.0940    42.2600 c3         1 OXR      -0.082600
      8 C5          22.7430    -8.8530    41.6090 ce         1 OXR      -0.190400
      9 C18         22.4600    -7.4060    41.3230 c3         1 OXR      -0.046900
     10 C6          21.8540    -9.7110    42.1720 cf         1 OXR      -0.012200
     11 C7          20.4920    -9.3200    42.5330 cf         1 OXR      -0.139000
     12 C8          19.6470    -8.6140    41.7640 ce         1 OXR      -0.108000
     13 C9          18.2700    -8.3010    42.1020 ce         1 OXR      -0.075200
     14 C19         17.7290    -8.7920    43.4100 c3         1 OXR      -0.053900
     15 C10         17.5550    -7.5760    41.2090 cf         1 OXR      -0.116000
     16 C11         16.1830    -7.1540    41.3220 cf         1 OXR      -0.130000
     17 C12         15.5900    -6.3900    40.3830 ce         1 OXR      -0.114000
     18 C13         14.2150    -5.9140    40.4090 ce         1 OXR      -0.073200
     19 C20         13.3490    -6.3350    41.5600 c3         1 OXR      -0.055900
     20 C14         13.8110    -5.1170    39.4040 c2         1 OXR      -0.154200
     21 C15         12.4850    -4.4580    39.2290 c3         1 OXR       0.174600
     22 O1          12.0800    -4.6210    37.8840 oh         1 OXR      -0.593800
     23 H31         24.9620   -10.5560    42.7200 hc         1 OXR       0.069700
     24 H32         25.3640   -11.0050    41.0770 hc         1 OXR       0.069700
     25 H21         23.7170   -12.6140    42.0860 hc         1 OXR       0.049200
     26 H22         23.0580   -11.8030    40.6810 hc         1 OXR       0.049200
     27 H171        23.3840   -10.5770    44.3040 hc         1 OXR       0.038033
     28 H172        21.6880   -10.8790    44.6490 hc         1 OXR       0.038033
     29 H173        22.7680   -12.2320    44.3340 hc         1 OXR       0.038033
     30 H161        21.3400   -13.1260    42.4340 hc         1 OXR       0.038033
     31 H162        20.1700   -11.9010    42.9050 hc         1 OXR       0.038033
     32 H163        20.6920   -12.0150    41.2240 hc         1 OXR       0.038033
     33 H181        22.1910    -7.2390    40.2770 hc         1 OXR       0.048033
     34 H182        21.6440    -7.0240    41.9320 hc         1 OXR       0.048033
     35 H183        23.3410    -6.7960    41.5200 hc         1 OXR       0.048033
     36 H7          20.1300    -9.7190    43.4760 ha         1 OXR       0.128000
     37 H8          19.9820    -8.2680    40.7920 ha         1 OXR       0.128000
     38 H191        18.3040    -8.3880    44.2460 hc         1 OXR       0.042367
     39 H192        16.6890    -8.5200    43.5670 hc         1 OXR       0.042367
     40 H193        17.7970    -9.8800    43.4780 hc         1 OXR       0.042367
     41 H10         18.0640    -7.2670    40.2990 ha         1 OXR       0.120000
     42 H11         15.6180    -7.4660    42.1930 ha         1 OXR       0.125000
     43 H12         16.1810    -6.0820    39.5240 ha         1 OXR       0.122000
     44 H201        13.7170    -5.9150    42.4980 hc         1 OXR       0.041700
     45 H202        12.3150    -6.0210    41.4470 hc         1 OXR       0.041700
     46 H203        13.3540    -7.4200    41.6740 hc         1 OXR       0.041700
     47 H14         14.5380    -4.8720    38.6330 ha         1 OXR       0.131000
     48 H151        12.5950    -3.3930    39.4770 h1         1 OXR       0.025700
     49 H152        11.7400    -4.8610    39.9230 h1         1 OXR       0.025700
     50 HO1         11.3420    -4.0260    37.7230 ho         1 OXR       0.403000
@<TRIPOS>BOND
     1     1     2 2   
     2     2     3 1   
     3     2     8 1   
     4     3     4 1   
     5     3    23 1   
     6     3    24 1   
     7     4     5 1   
     8     4    25 1   
     9     4    26 1   
    10     5     6 1   
    11     5     7 1   
    12     5    10 1   
    13     6    27 1   
    14     6    28 1   
    15     6    29 1   
    16     7    30 1   
    17     7    31 1   
    18     7    32 1   
    19     8     9 1   
    20     8    10 2   
    21     9    33 1   
    22     9    34 1   
    23     9    35 1   
    24    10    11 1   
    25    11    12 2   
    26    11    36 1   
    27    12    13 1   
    28    12    37 1   
    29    13    14 1   
    30    13    15 2   
    31    14    38 1   
    32    14    39 1   
    33    14    40 1   
    34    15    16 1   
    35    15    41 1   
    36    16    17 2   
    37    16    42 1   
    38    17    18 1   
    39    17    43 1   
    40    18    19 1   
    41    18    20 2   
    42    19    44 1   
    43    19    45 1   
    44    19    46 1   
    45    20    21 1   
    46    20    47 1   
    47    21    22 1   
    48    21    48 1   
    49    21    49 1   
    50    22    50 1   
@<TRIPOS>SUBSTRUCTURE
     1 OXR         1 TEMP              0 ****  ****    0 ROOT
