@<TRIPOS>MOLECULE
OXS
   16    15     1     0     0
SMALL
bcc


@<TRIPOS>ATOM
      1 C1           1.2450     0.5540     0.1800 c          1 OXS       0.958600
      2 C2          -0.1410    -0.1530     0.0760 c3         1 OXS      -0.284700
      3 C3          -1.0440     0.1210     1.2580 c3         1 OXS      -0.139400
      4 C4          -0.5100    -0.4200     2.5930 c          1 OXS       0.942600
      5 C5          -0.7190     0.2720    -1.2440 c          1 OXS       0.490100
      6 C6          -0.1580    -0.3750    -2.5210 c          1 OXS       0.883600
      7 O1           1.3850     1.4050     1.0730 o          1 OXS      -0.864800
      8 O2           2.0880     0.2160    -0.6750 o          1 OXS      -0.864800
      9 O3           0.2980    -1.3710     2.5560 o          1 OXS      -0.897800
     10 O4          -0.9580     0.1170     3.6300 o          1 OXS      -0.897800
     11 O5          -1.6110     1.0950    -1.3320 o          1 OXS      -0.667100
     12 O6          -0.1080    -1.6190    -2.4990 o          1 OXS      -0.865800
     13 O7           0.1280     0.3910    -3.4550 o          1 OXS      -0.865800
     14 H2           0.0690    -1.2220     0.0110 hc         1 OXS       0.081700
     15 H31         -2.0210    -0.3490     1.0870 hc         1 OXS      -0.004300
     16 H32         -1.2460     1.1880     1.3570 hc         1 OXS      -0.004300
@<TRIPOS>BOND
     1     1     2 1   
     2     1     7 1   
     3     1     8 1   
     4     2     3 1   
     5     2     5 1   
     6     2    14 1   
     7     3     4 1   
     8     3    15 1   
     9     3    16 1   
    10     4     9 1   
    11     4    10 1   
    12     5     6 1   
    13     5    11 2   
    14     6    12 1   
    15     6    13 1   
@<TRIPOS>SUBSTRUCTURE
     1 OXS         1 TEMP              0 ****  ****    0 ROOT
