@<TRIPOS>MOLECULE
OXS
   16    15     1     0     0
SMALL
No Charge or Current Charge


@<TRIPOS>ATOM
      1 C1           1.1450     0.8830     0.2830 c          1 OXS       0.748000
      2 C2          -0.0840     0.0000     0.0930 c3         1 OXS      -0.284700
      3 C3          -1.0820     0.0050     1.3020 c3         1 OXS      -0.139400
      4 C4          -0.4760    -0.7160     2.5340 c          1 OXS       0.732000
      5 C5          -0.7180     0.3960    -1.2480 c          1 OXS       0.490100
      6 C6          -0.2380    -0.4590    -2.5530 c          1 OXS       0.673000
      7 O1           0.9990     2.0790     0.4810 o          1 OXS      -0.759500
      8 O2           2.2410     0.3520     0.1930 o          1 OXS      -0.759500
      9 O3          -0.6040    -1.9290     2.6180 o          1 OXS      -0.792500
     10 O4           0.1370    -0.0530     3.3580 o          1 OXS      -0.792500
     11 O5          -1.5180     1.3390    -1.3330 o          1 OXS      -0.667100
     12 O6          -0.3780    -1.6820    -2.5460 o          1 OXS      -0.760500
     13 O7           0.2290     0.1450    -3.5180 o          1 OXS      -0.760500
     14 H2           0.3040    -1.0150    -0.0430 hc         1 OXS       0.081700
     15 H31         -1.9580    -0.5510     0.9450 hc         1 OXS      -0.004300
     16 H32         -1.3010     1.0560     1.5290 hc         1 OXS      -0.004300
@<TRIPOS>BOND
     1     1     2 1   
     2     1     7 1   
     3     1     8 1   
     4     2     3 1   
     5     2     5 1   
     6     2    14 1   
     7     3     4 1   
     8     3    15 1   
     9     3    16 1   
    10     4     9 1   
    11     4    10 1   
    12     5     6 1   
    13     5    11 2   
    14     6    12 1   
    15     6    13 1   
@<TRIPOS>SUBSTRUCTURE
     1 OXS         1 TEMP              0 ****  ****    0 ROOT
