@<TRIPOS>MOLECULE
OXU
   10     9     1     0     0
SMALL
No Charge or Current Charge


@<TRIPOS>ATOM
      1 C2          33.9690    30.3710    20.5120 c3         1 OXU       0.149800
      2 C3          32.5800    29.6900    20.5400 c3         1 OXU       0.105600
      3 N1          35.0480    29.4680    20.0380 n8         1 OXU      -1.001200
      4 Br4         32.5490    28.0710    21.7200 br         1 OXU      -0.301000
      5 H1          34.2170    30.7220    21.5240 h1         1 OXU       0.040700
      6 H2          33.9270    31.2480    19.8520 h1         1 OXU       0.040700
      7 H3          31.8220    30.3820    20.9260 h1         1 OXU       0.080200
      8 H4          32.2900    29.3610    19.5340 h1         1 OXU       0.080200
      9 HN1         35.9540    29.9410    20.1450 hn         1 OXU       0.402500
     10 HN2         35.1170    28.6700    20.6830 hn         1 OXU       0.402500
@<TRIPOS>BOND
     1     1     2 1   
     2     1     3 1   
     3     1     5 1   
     4     1     6 1   
     5     2     4 1   
     6     2     7 1   
     7     2     8 1   
     8     3     9 1   
     9     3    10 1   
@<TRIPOS>SUBSTRUCTURE
     1 OXU         1 TEMP              0 ****  ****    0 ROOT
