@<TRIPOS>MOLECULE
OXU
   10     9     1     0     0
SMALL
abcg2


@<TRIPOS>ATOM
      1 C2          33.9800    30.3450    20.5730 c3         1 OXU       0.149800
      2 C3          32.6130    29.7100    20.5200 c3         1 OXU       0.105600
      3 N1          35.0160    29.4630    20.0350 n8         1 OXU      -1.001200
      4 BR4         32.4830    28.1440    21.7500 br         1 OXU      -0.301000
      5 H1          34.1800    30.6910    21.5950 h1         1 OXU       0.040700
      6 H2          33.9250    31.2350    19.9380 h1         1 OXU       0.040700
      7 H3          31.8340    30.3850    20.8570 h1         1 OXU       0.080200
      8 H4          32.3810    29.3050    19.5390 h1         1 OXU       0.080200
      9 HN1         35.8990    29.9630    19.9990 hn         1 OXU       0.402500
     10 HN2         35.1620    28.6820    20.6680 hn         1 OXU       0.402500
@<TRIPOS>BOND
     1     1     2 1   
     2     1     3 1   
     3     1     5 1   
     4     1     6 1   
     5     2     4 1   
     6     2     7 1   
     7     2     8 1   
     8     3     9 1   
     9     3    10 1   
@<TRIPOS>SUBSTRUCTURE
     1 OXU         1 TEMP              0 ****  ****    0 ROOT
