@<TRIPOS>MOLECULE
OXV
   87    90     1     0     0
SMALL
No Charge or Current Charge


@<TRIPOS>ATOM
      1 C11          7.2850    -0.6390   -21.8650 c3         1 OXV       0.154600
      2 C12          7.8610    -1.9200   -22.5050 c3         1 OXV       0.157600
      3 C01          1.1380     5.3010   -20.5790 c3         1 OXV      -0.088100
      4 C02          2.5810     5.0590   -21.0630 c3         1 OXV      -0.077400
      5 C03          3.6450     5.6280   -20.0970 c3         1 OXV      -0.067400
      6 C04          5.1020     5.4340   -20.5850 c3         1 OXV      -0.158400
      7 C05          5.4950     3.9550   -20.6880 c          1 OXV       0.599100
      8 C08          6.0160     2.0980   -22.3170 c3         1 OXV       0.066000
      9 C09          7.5050     1.7970   -22.0110 c3         1 OXV       0.140600
     10 C14          7.7330    -4.3310   -22.3330 c3         1 OXV       0.137600
     11 C15          7.0170    -5.4410   -21.5280 c3         1 OXV       0.149600
     12 C17          8.3140    -7.5350   -21.3310 c3         1 OXV       0.135600
     13 C18          9.7450    -6.9420   -21.4310 c3         1 OXV       0.061000
     14 C20         10.4800    -7.8230   -23.6820 c          1 OXV       0.585100
     15 C22         10.8520    -7.4070   -25.1110 c3         1 OXV      -0.035400
     16 C24         10.4220    -9.1730   -26.9360 cc         1 OXV       0.138200
     17 C26          8.0940    -8.4910   -27.3430 ca         1 OXV      -0.246000
     18 C27          8.7160    -7.7100   -26.3830 ca         1 OXV      -0.018200
     19 C28          8.0080    -6.6670   -25.7530 ca         1 OXV      -0.118000
     20 C29          6.6670    -6.4300   -26.1130 ca         1 OXV      -0.074000
     21 C30          6.0440    -7.2290   -27.0930 ca         1 OXV      -0.120000
     22 C31          6.7580    -8.2690   -27.7170 ca         1 OXV      -0.040000
     23 C32         11.7810    -9.8350   -26.8730 c3         1 OXV      -0.002400
     24 C33         12.0220   -10.8800   -27.9710 ca         1 OXV      -0.367300
     25 C34         11.9710   -12.2400   -27.6180 ca         1 OXV      -0.101000
     26 C35         12.1750   -13.2300   -28.5860 ca         1 OXV      -0.158000
     27 C38         12.4770   -11.5490   -30.3010 ca         1 OXV       0.035700
     28 C39         12.2720   -10.5280   -29.3260 ca         1 OXV       0.065000
     29 C40         12.3090    -9.1710   -29.7290 ca         1 OXV      -0.214000
     30 C41         12.5440    -8.8250   -31.0670 ca         1 OXV      -0.105000
     31 C42         12.7450    -9.8260   -32.0250 ca         1 OXV      -0.143000
     32 C43         12.7120   -11.1770   -31.6480 ca         1 OXV      -0.179000
     33 N07          5.6270     3.4740   -21.9720 ns         1 OXV      -0.510900
     34 N19         10.2230    -6.7810   -22.8150 ns         1 OXV      -0.493900
     35 N23         10.0330    -8.0850   -26.1440 na         1 OXV      -0.111500
     36 N36         12.4390   -12.9050   -29.9170 na         1 OXV      -0.125700
     37 O06          5.7040     3.2600   -19.7050 o          1 OXV      -0.602100
     38 O10          7.8650     0.5010   -22.5380 os         1 OXV      -0.461000
     39 O13          7.2850    -3.0580   -21.8360 os         1 OXV      -0.463000
     40 O16          7.3580    -6.7380   -22.0740 os         1 OXV      -0.463000
     41 O21         10.4180    -8.9930   -23.3310 o          1 OXV      -0.579100
     42 S25          9.1380    -9.7640   -28.0160 ss         1 OXV       0.325800
     43 H1           6.1930    -0.6500   -21.9720 h1         1 OXV       0.040200
     44 H2           7.5330    -0.6260   -20.7960 h1         1 OXV       0.040200
     45 H3           8.9540    -1.9200   -22.3980 h1         1 OXV       0.035700
     46 H4           7.6150    -1.9340   -23.5750 h1         1 OXV       0.035700
     47 H5           0.4200     4.8810   -21.2930 hc         1 OXV       0.033033
     48 H6           0.9710     4.8250   -19.6050 hc         1 OXV       0.033033
     49 H7           0.9360     6.3740   -20.4810 hc         1 OXV       0.033033
     50 H8           2.7050     5.5160   -22.0530 hc         1 OXV       0.038200
     51 H9           2.7330     3.9790   -21.1870 hc         1 OXV       0.038200
     52 H10          3.5290     5.1600   -19.1110 hc         1 OXV       0.052200
     53 H11          3.4630     6.7010   -19.9580 hc         1 OXV       0.052200
     54 H12          5.7680     5.9170   -19.8610 hc         1 OXV       0.056200
     55 H13          5.2110     5.9230   -21.5600 hc         1 OXV       0.056200
     56 H14          5.8300     1.9440   -23.3880 h1         1 OXV       0.061700
     57 H15          5.3720     1.4080   -21.7570 h1         1 OXV       0.061700
     58 H16          7.6850     1.8450   -20.9290 h1         1 OXV       0.053200
     59 H17          8.1220     2.5720   -22.4850 h1         1 OXV       0.053200
     60 H18          7.4820    -4.4360   -23.3970 h1         1 OXV       0.024700
     61 H19          8.8190    -4.4210   -22.2200 h1         1 OXV       0.024700
     62 H20          5.9340    -5.2790   -21.6110 h1         1 OXV       0.059200
     63 H21          7.2840    -5.3630   -20.4660 h1         1 OXV       0.059200
     64 H22          8.3310    -8.5570   -21.7300 h1         1 OXV       0.059700
     65 H23          8.0240    -7.6080   -20.2740 h1         1 OXV       0.059700
     66 H24         10.4380    -7.6090   -20.9000 h1         1 OXV       0.068200
     67 H25          9.7810    -5.9710   -20.9210 h1         1 OXV       0.068200
     68 H26         11.9140    -7.6350   -25.2530 h1         1 OXV       0.088700
     69 H27         10.7390    -6.3220   -25.2160 h1         1 OXV       0.088700
     70 H28          8.4710    -6.0440   -24.9940 ha         1 OXV       0.123000
     71 H29          6.1110    -5.6290   -25.6310 ha         1 OXV       0.121000
     72 H30          5.0090    -7.0420   -27.3680 ha         1 OXV       0.122000
     73 H31          6.2800    -8.8900   -28.4720 ha         1 OXV       0.133000
     74 H32         11.8900   -10.2970   -25.8830 hc         1 OXV       0.067200
     75 H33         12.5680    -9.0730   -26.9120 hc         1 OXV       0.067200
     76 H34         11.7700   -12.5380   -26.5910 ha         1 OXV       0.097000
     77 H35         12.1340   -14.2860   -28.3170 h4         1 OXV       0.110000
     78 H36         12.6470   -14.9710   -30.3820 h1         1 OXV       0.029033
     79 H37         11.9250   -13.9720   -31.6710 h1         1 OXV       0.029033
     80 H38         13.6820   -13.8720   -31.3310 h1         1 OXV       0.029033
     81 H39         12.1520    -8.3660   -29.0180 ha         1 OXV       0.078000
     82 H40         12.5680    -7.7790   -31.3620 ha         1 OXV       0.090000
     83 H41         12.9260    -9.5540   -33.0630 ha         1 OXV       0.102000
     84 H42         12.8700   -11.9240   -32.4200 ha         1 OXV       0.098000
     85 H43          5.4370     4.1270   -22.7240 hn         1 OXV       0.311500
     86 H44         10.3260    -5.8420   -23.1810 hn         1 OXV       0.321500
     87 C37         12.6880   -13.9960   -30.8830 c3         1 OXV       0.065900
@<TRIPOS>BOND
     1     1     2 1   
     2     1    38 1   
     3     1    43 1   
     4     1    44 1   
     5     2    39 1   
     6     2    45 1   
     7     2    46 1   
     8     3     4 1   
     9     3    47 1   
    10     3    48 1   
    11     3    49 1   
    12     4     5 1   
    13     4    50 1   
    14     4    51 1   
    15     5     6 1   
    16     5    52 1   
    17     5    53 1   
    18     6     7 1   
    19     6    54 1   
    20     6    55 1   
    21     7    33 1   
    22     7    37 2   
    23     8     9 1   
    24     8    33 1   
    25     8    56 1   
    26     8    57 1   
    27     9    38 1   
    28     9    58 1   
    29     9    59 1   
    30    10    11 1   
    31    10    39 1   
    32    10    60 1   
    33    10    61 1   
    34    11    40 1   
    35    11    62 1   
    36    11    63 1   
    37    12    13 1   
    38    12    40 1   
    39    12    64 1   
    40    12    65 1   
    41    13    34 1   
    42    13    66 1   
    43    13    67 1   
    44    14    15 1   
    45    14    34 1   
    46    14    41 2   
    47    15    35 1   
    48    15    68 1   
    49    15    69 1   
    50    16    23 1   
    51    16    35 2   
    52    16    42 1   
    53    17    18 ar  
    54    17    22 ar  
    55    17    42 1   
    56    18    19 ar  
    57    18    35 1   
    58    19    20 ar  
    59    19    70 1   
    60    20    21 ar  
    61    20    71 1   
    62    21    22 ar  
    63    21    72 1   
    64    22    73 1   
    65    23    24 1   
    66    23    74 1   
    67    23    75 1   
    68    24    25 ar  
    69    24    28 ar  
    70    25    26 ar  
    71    25    76 1   
    72    26    36 1   
    73    26    77 1   
    74    27    28 ar  
    75    27    32 ar  
    76    27    36 2   
    77    28    29 ar  
    78    29    30 ar  
    79    29    81 1   
    80    30    31 ar  
    81    30    82 1   
    82    31    32 ar  
    83    31    83 1   
    84    32    84 1   
    85    33    85 1   
    86    34    86 1   
    87    36    87 1   
    88    78    87 1   
    89    79    87 1   
    90    80    87 1   
@<TRIPOS>SUBSTRUCTURE
     1 OXV         1 TEMP              0 ****  ****    0 ROOT
