@<TRIPOS>MOLECULE
OXV
   87    90     1     0     0
SMALL
bcc


@<TRIPOS>ATOM
      1 C11          7.4070    -0.5170   -21.6490 c3         1 OXV       0.131400
      2 C12          7.8680    -1.8590   -22.2060 c3         1 OXV       0.134400
      3 C01          2.5710     6.8840   -20.5320 c3         1 OXV      -0.088100
      4 C02          3.8990     6.2870   -20.9770 c3         1 OXV      -0.077400
      5 C03          4.9410     6.3000   -19.8660 c3         1 OXV      -0.067400
      6 C04          6.2870     5.7090   -20.2790 c3         1 OXV      -0.158400
      7 C05          6.1820     4.2250   -20.5630 c          1 OXV       0.666100
      8 C08          6.7140     2.4500   -22.1910 c3         1 OXV       0.066000
      9 C09          8.0160     1.7740   -21.7530 c3         1 OXV       0.117400
     10 C14          7.2350    -4.1310   -22.1920 c3         1 OXV       0.114400
     11 C15          6.4140    -5.1050   -21.3600 c3         1 OXV       0.126400
     12 C17          7.0220    -7.4110   -21.5770 c3         1 OXV       0.112400
     13 C18          8.4290    -7.4130   -22.1490 c3         1 OXV       0.061000
     14 C20          8.8340    -8.3810   -24.3740 c          1 OXV       0.652100
     15 C22          8.6960    -8.1070   -25.8740 c3         1 OXV      -0.064700
     16 C24          9.8940    -9.9720   -26.8540 cc         1 OXV       0.138200
     17 C26          7.9550   -11.3280   -27.4690 ca         1 OXV      -0.119100
     18 C27          7.6210   -10.0990   -26.9020 ca         1 OXV      -0.018200
     19 C28          6.2950    -9.7410   -26.6970 ca         1 OXV      -0.136000
     20 C29          5.3250   -10.6480   -27.0820 ca         1 OXV      -0.092000
     21 C30          5.6610   -11.8790   -27.6530 ca         1 OXV      -0.138000
     22 C31          6.9820   -12.2360   -27.8530 ca         1 OXV      -0.058000
     23 C32         11.2720    -9.4740   -26.6140 c3         1 OXV      -0.002400
     24 C33         12.2060   -10.0100   -27.6410 ca         1 OXV      -0.367300
     25 C34         13.3230   -10.8210   -27.2540 ca         1 OXV      -0.119000
     26 C35         14.1550   -11.3380   -28.1690 ca         1 OXV      -0.125300
     27 C38         13.0560   -10.1530   -29.9390 ca         1 OXV       0.035700
     28 C39         12.1200    -9.6040   -28.9880 ca         1 OXV       0.065000
     29 C40         11.1790    -8.6680   -29.4970 ca         1 OXV      -0.232000
     30 C41         11.1730    -8.2640   -30.8450 ca         1 OXV      -0.123000
     31 C42         12.1050    -8.7580   -31.7350 ca         1 OXV      -0.161000
     32 C43         13.0590    -9.7100   -31.2530 ca         1 OXV      -0.197000
     33 N07          6.6630     3.8250   -21.7520 ns         1 OXV      -0.577900
     34 N19          8.4040    -7.3880   -23.5990 ns         1 OXV      -0.560900
     35 N23          8.7600    -9.3580   -26.5950 na         1 OXV      -0.082200
     36 N36         13.9310   -11.1550   -29.5020 na         1 OXV      -0.147100
     37 O06          5.6720     3.4620   -19.7600 o          1 OXV      -0.602100
     38 O10          8.1610     0.4810   -22.2870 os         1 OXV      -0.414600
     39 O13          7.1300    -2.8810   -21.5690 os         1 OXV      -0.416600
     40 O16          6.2390    -6.3350   -22.0270 os         1 OXV      -0.416600
     41 O21          9.3400    -9.4200   -23.9900 o          1 OXV      -0.579100
     42 S25          9.6740   -11.4790   -27.6170 ss         1 OXV       0.198900
     43 H1           6.3330    -0.4010   -21.8410 h1         1 OXV       0.040200
     44 H2           7.5480    -0.4920   -20.5610 h1         1 OXV       0.040200
     45 H3           8.9450    -1.9890   -22.0430 h1         1 OXV       0.035700
     46 H4           7.6960    -1.8830   -23.2900 h1         1 OXV       0.035700
     47 H5           1.8350     6.8620   -21.3360 hc         1 OXV       0.033033
     48 H6           2.1560     6.3300   -19.6890 hc         1 OXV       0.033033
     49 H7           2.6870     7.9230   -20.2180 hc         1 OXV       0.033033
     50 H8           4.2810     6.8370   -21.8430 hc         1 OXV       0.038200
     51 H9           3.7310     5.2610   -21.3200 hc         1 OXV       0.038200
     52 H10          4.5630     5.7560   -18.9970 hc         1 OXV       0.052200
     53 H11          5.1060     7.3280   -19.5330 hc         1 OXV       0.052200
     54 H12          7.0040     5.8360   -19.4630 hc         1 OXV       0.056200
     55 H13          6.6940     6.2520   -21.1360 hc         1 OXV       0.056200
     56 H14          6.6450     2.4370   -23.2780 h1         1 OXV       0.061700
     57 H15          5.8440     1.9210   -21.8030 h1         1 OXV       0.061700
     58 H16          8.0750     1.7590   -20.6570 h1         1 OXV       0.053200
     59 H17          8.8620     2.3570   -22.1190 h1         1 OXV       0.053200
     60 H18          6.8400    -4.0970   -23.2180 h1         1 OXV       0.024700
     61 H19          8.2850    -4.4600   -22.2600 h1         1 OXV       0.024700
     62 H20          5.4220    -4.6750   -21.1920 h1         1 OXV       0.059200
     63 H21          6.8770    -5.2450   -20.3760 h1         1 OXV       0.059200
     64 H22          6.5090    -8.3210   -21.8960 h1         1 OXV       0.059700
     65 H23          7.0800    -7.4330   -20.4790 h1         1 OXV       0.059700
     66 H24          8.9430    -8.3130   -21.8200 h1         1 OXV       0.068200
     67 H25          9.0100    -6.5620   -21.7830 h1         1 OXV       0.068200
     68 H26          9.5090    -7.4530   -26.1930 h1         1 OXV       0.088700
     69 H27          7.7780    -7.5900   -26.1450 h1         1 OXV       0.088700
     70 H28          6.0080    -8.7980   -26.2560 ha         1 OXV       0.141000
     71 H29          4.2850   -10.3970   -26.9310 ha         1 OXV       0.139000
     72 H30          4.8770   -12.5670   -27.9360 ha         1 OXV       0.140000
     73 H31          7.2460   -13.1970   -28.2710 ha         1 OXV       0.151000
     74 H32         11.5610    -9.8120   -25.6130 hc         1 OXV       0.067200
     75 H33         11.2600    -8.3760   -26.5590 hc         1 OXV       0.067200
     76 H34         13.5150   -11.0130   -26.2050 ha         1 OXV       0.115000
     77 H35         15.0310   -11.9190   -27.9200 h4         1 OXV       0.128000
     78 H36         15.3720   -12.5680   -29.9790 h1         1 OXV       0.029033
     79 H37         14.3010   -12.1560   -31.3100 h1         1 OXV       0.029033
     80 H38         15.5840   -11.0400   -30.8360 h1         1 OXV       0.029033
     81 H39         10.4350    -8.2440   -28.8330 ha         1 OXV       0.096000
     82 H40         10.4280    -7.5480   -31.1750 ha         1 OXV       0.108000
     83 H41         12.1210    -8.4540   -32.7740 ha         1 OXV       0.120000
     84 H42         13.7930   -10.1040   -31.9460 ha         1 OXV       0.116000
     85 H43          7.0750     4.5140   -22.3570 hn         1 OXV       0.311500
     86 H44          7.9580    -6.5960   -24.0320 hn         1 OXV       0.321500
     87 C37         14.8380   -11.7460   -30.4500 c3         1 OXV       0.036600
@<TRIPOS>BOND
     1     1     2 1   
     2     1    38 1   
     3     1    43 1   
     4     1    44 1   
     5     2    39 1   
     6     2    45 1   
     7     2    46 1   
     8     3     4 1   
     9     3    47 1   
    10     3    48 1   
    11     3    49 1   
    12     4     5 1   
    13     4    50 1   
    14     4    51 1   
    15     5     6 1   
    16     5    52 1   
    17     5    53 1   
    18     6     7 1   
    19     6    54 1   
    20     6    55 1   
    21     7    33 1   
    22     7    37 2   
    23     8     9 1   
    24     8    33 1   
    25     8    56 1   
    26     8    57 1   
    27     9    38 1   
    28     9    58 1   
    29     9    59 1   
    30    10    11 1   
    31    10    39 1   
    32    10    60 1   
    33    10    61 1   
    34    11    40 1   
    35    11    62 1   
    36    11    63 1   
    37    12    13 1   
    38    12    40 1   
    39    12    64 1   
    40    12    65 1   
    41    13    34 1   
    42    13    66 1   
    43    13    67 1   
    44    14    15 1   
    45    14    34 1   
    46    14    41 2   
    47    15    35 1   
    48    15    68 1   
    49    15    69 1   
    50    16    23 1   
    51    16    35 2   
    52    16    42 1   
    53    17    18 ar  
    54    17    22 ar  
    55    17    42 1   
    56    18    19 ar  
    57    18    35 1   
    58    19    20 ar  
    59    19    70 1   
    60    20    21 ar  
    61    20    71 1   
    62    21    22 ar  
    63    21    72 1   
    64    22    73 1   
    65    23    24 1   
    66    23    74 1   
    67    23    75 1   
    68    24    25 ar  
    69    24    28 ar  
    70    25    26 ar  
    71    25    76 1   
    72    26    36 1   
    73    26    77 1   
    74    27    28 ar  
    75    27    32 ar  
    76    27    36 2   
    77    28    29 ar  
    78    29    30 ar  
    79    29    81 1   
    80    30    31 ar  
    81    30    82 1   
    82    31    32 ar  
    83    31    83 1   
    84    32    84 1   
    85    33    85 1   
    86    34    86 1   
    87    36    87 1   
    88    78    87 1   
    89    79    87 1   
    90    80    87 1   
@<TRIPOS>SUBSTRUCTURE
     1 OXV         1 TEMP              0 ****  ****    0 ROOT
