@<TRIPOS>MOLECULE
OXW
   50    54     1     0     0
SMALL
No Charge or Current Charge


@<TRIPOS>ATOM
      1 C1          25.4340     2.3850   -64.4180 ca         1 OXW       0.413900
      2 C3          27.2210     1.0590   -65.0040 ca         1 OXW       0.251900
      3 N6          25.7070     2.3710   -63.0970 nb         1 OXW      -0.257000
      4 C9          26.9740     1.8990   -60.3270 ca         1 OXW       0.040800
      5 C10         25.7500     1.5170   -59.7160 ca         1 OXW       0.035000
      6 C11         25.3660     2.1100   -58.4950 ca         1 OXW      -0.114000
      7 C12         26.1890     3.0670   -57.8850 ca         1 OXW       0.180000
      8 C13         27.4010     3.4430   -58.4800 ca         1 OXW      -0.134000
      9 C14         27.7920     2.8610   -59.6990 ca         1 OXW      -0.078000
     10 C19         22.4540     4.7340   -64.6970 cc         1 OXW       0.214900
     11 C22         21.2480     4.8920   -61.3790 c6         1 OXW       0.098300
     12 C24         19.8510     3.9140   -59.4880 c6         1 OXW       0.165800
     13 N25         20.8350     4.4210   -58.4940 n3         1 OXW      -0.716600
     14 C27         22.2320     5.4290   -60.3090 c6         1 OXW      -0.092900
     15 C30         24.8820     0.5330   -60.3120 cg         1 OXW       0.317000
     16 N2          26.1370     1.7720   -65.3950 nb         1 OXW      -0.253000
     17 C4          27.5630     0.9880   -63.6430 ca         1 OXW      -0.151600
     18 C5          26.7860     1.6550   -62.7430 ca         1 OXW       0.163500
     19 N7          27.3830     1.3700   -61.5540 na         1 OXW       0.024100
     20 N8          28.6110     0.3180   -63.0160 nc         1 OXW      -0.161400
     21 N15         28.4970     0.5700   -61.7110 nd         1 OXW      -0.142400
     22 N16         21.9430     4.6160   -62.6590 na         1 OXW       0.137800
     23 C17         22.9950     3.7060   -62.8140 cd         1 OXW      -0.165000
     24 C18         23.3400     3.7930   -64.1250 cc         1 OXW       0.154000
     25 N20         21.5960     5.2600   -63.8410 nd         1 OXW      -0.509800
     26 N21         24.3150     3.0970   -64.8290 nu         1 OXW      -0.870900
     27 C23         20.5250     3.6280   -60.8480 c6         1 OXW      -0.092900
     28 C26         21.5070     5.6620   -58.9650 c6         1 OXW       0.165800
     29 C28         20.2420     4.5800   -57.1480 c3         1 OXW       0.152100
     30 F29         25.8120     3.6290   -56.7160 f          1 OXW      -0.164000
     31 N31         24.1690    -0.2560   -60.7930 n1         1 OXW      -0.415000
     32 H1          27.7980     0.5530   -65.7760 h4         1 OXW       0.047100
     33 H2          24.4300     1.8310   -58.0170 ha         1 OXW       0.152000
     34 H3          28.0320     4.1860   -58.0000 ha         1 OXW       0.140000
     35 H4          28.7300     3.1630   -60.1620 ha         1 OXW       0.144000
     36 H5          22.4170     5.0540   -65.7300 h4         1 OXW       0.040100
     37 H6          20.4900     5.6660   -61.5670 h1         1 OXW       0.077700
     38 H7          19.0420     4.6470   -59.6320 h1         1 OXW       0.037200
     39 H8          19.3850     2.9860   -59.1240 h1         1 OXW       0.037200
     40 H10         23.0550     4.7190   -60.1530 hc         1 OXW       0.062200
     41 H11         22.6860     6.3680   -60.6520 hc         1 OXW       0.062200
     42 H12         23.3860     3.1010   -62.0080 h4         1 OXW       0.181000
     43 H13         24.2470     3.1790   -65.8460 hn         1 OXW       0.525000
     44 H14         19.7710     3.2920   -61.5720 hc         1 OXW       0.062200
     45 H15         21.2390     2.8010   -60.7280 hc         1 OXW       0.062200
     46 H16         22.2440     6.0020   -58.2220 h1         1 OXW       0.037200
     47 H17         20.7720     6.4720   -59.0860 h1         1 OXW       0.037200
     48 H18         21.0060     4.8910   -56.4230 h1         1 OXW       0.033700
     49 H19         19.4470     5.3370   -57.1570 h1         1 OXW       0.033700
     50 H20         19.8120     3.6320   -56.7990 h1         1 OXW       0.033700
@<TRIPOS>BOND
     1     1     3 ar  
     2     1    16 ar  
     3     1    26 1   
     4     2    16 ar  
     5     2    17 ar  
     6     2    32 1   
     7     3    18 ar  
     8     4     5 ar  
     9     4     9 ar  
    10     4    19 1   
    11     5     6 ar  
    12     5    15 1   
    13     6     7 ar  
    14     6    33 1   
    15     7     8 ar  
    16     7    30 1   
    17     8     9 ar  
    18     8    34 1   
    19     9    35 1   
    20    10    24 1   
    21    10    25 2   
    22    10    36 1   
    23    11    14 1   
    24    11    22 1   
    25    11    27 1   
    26    11    37 1   
    27    12    13 1   
    28    12    27 1   
    29    12    38 1   
    30    12    39 1   
    31    13    28 1   
    32    13    29 1   
    33    14    28 1   
    34    14    40 1   
    35    14    41 1   
    36    15    31 3   
    37    17    18 ar  
    38    17    20 1   
    39    18    19 1   
    40    19    21 1   
    41    20    21 2   
    42    22    23 1   
    43    22    25 1   
    44    23    24 2   
    45    23    42 1   
    46    24    26 1   
    47    26    43 1   
    48    27    44 1   
    49    27    45 1   
    50    28    46 1   
    51    28    47 1   
    52    29    48 1   
    53    29    49 1   
    54    29    50 1   
@<TRIPOS>SUBSTRUCTURE
     1 OXW         1 TEMP              0 ****  ****    0 ROOT
