@<TRIPOS>MOLECULE
OXW
   50    54     1     0     0
SMALL
bcc


@<TRIPOS>ATOM
      1 C1          25.3800     2.4870   -64.4630 ca         1 OXW       0.939900
      2 C3          27.2240     1.2690   -65.0970 ca         1 OXW       0.580200
      3 N6          25.5850     2.4130   -63.1510 nb         1 OXW      -0.783000
      4 C9          26.7200     1.8000   -60.3690 ca         1 OXW       0.040800
      5 C10         26.5440     0.8320   -59.3770 ca         1 OXW       0.035000
      6 C11         26.0650     1.1940   -58.1210 ca         1 OXW      -0.132000
      7 C12         25.7490     2.5170   -57.8950 ca         1 OXW       0.144900
      8 C13         25.9000     3.4870   -58.8680 ca         1 OXW      -0.152000
      9 C14         26.3970     3.1220   -60.1080 ca         1 OXW      -0.096000
     10 C19         22.2560     4.5240   -64.6630 cc         1 OXW       0.280200
     11 C22         21.5370     5.0820   -61.2940 c6         1 OXW       0.069000
     12 C24         19.7390     4.6000   -59.6360 c6         1 OXW       0.165800
     13 N25         20.7220     4.5610   -58.5700 n3         1 OXW      -0.716600
     14 C27         22.5370     5.0470   -60.1480 c6         1 OXW      -0.092900
     15 C30         26.8130    -0.5460   -59.6350 cg         1 OXW       0.227800
     16 N2          26.1560     1.9420   -65.4390 nb         1 OXW      -0.779000
     17 C4          27.5440     1.1260   -63.7420 ca         1 OXW      -0.282200
     18 C5          26.6710     1.7300   -62.8490 ca         1 OXW       0.491800
     19 N7          27.1950     1.4370   -61.6390 na         1 OXW       0.024100
     20 N8          28.5360     0.5150   -63.0350 nc         1 OXW      -0.161400
     21 N15         28.3280     0.7040   -61.7990 nd         1 OXW      -0.142400
     22 N16         22.1430     4.7200   -62.5660 na         1 OXW       0.116400
     23 C17         23.2470     3.9720   -62.7730 cd         1 OXW      -0.132300
     24 C18         23.3590     3.8240   -64.1420 cc         1 OXW      -0.049700
     25 N20         21.5340     5.0540   -63.6930 nd         1 OXW      -0.509800
     26 N21         24.3090     3.1640   -64.9090 nu         1 OXW      -0.677300
     27 C23         20.3500     4.1840   -60.9650 c6         1 OXW      -0.092900
     28 C26         21.8410     5.4390   -58.8520 c6         1 OXW       0.165800
     29 C28         20.1240     4.8670   -57.2900 c3         1 OXW       0.152100
     30 F29         25.2840     2.8690   -56.6960 f          1 OXW      -0.128900
     31 N31         26.9970    -1.6670   -59.8150 n1         1 OXW      -0.325800
     32 H1          27.8310     0.8410   -65.8870 h4         1 OXW       0.047100
     33 H2          25.9330     0.4530   -57.3460 ha         1 OXW       0.170000
     34 H3          25.6540     4.5190   -58.6570 ha         1 OXW       0.158000
     35 H4          26.5420     3.8770   -60.8690 ha         1 OXW       0.162000
     36 H5          21.9800     4.6570   -65.6990 h4         1 OXW       0.040100
     37 H6          21.1800     6.1090   -61.4120 h1         1 OXW       0.077700
     38 H7          19.2950     5.6060   -59.7400 h1         1 OXW       0.037200
     39 H8          18.9210     3.9220   -59.3830 h1         1 OXW       0.037200
     40 H10         22.9470     4.0400   -60.0310 hc         1 OXW       0.062200
     41 H11         23.3690     5.7290   -60.3360 hc         1 OXW       0.062200
     42 H12         23.8630     3.6100   -61.9720 h4         1 OXW       0.199000
     43 H13         24.1920     3.1900   -65.9100 hn         1 OXW       0.469800
     44 H14         19.5960     4.2480   -61.7520 hc         1 OXW       0.062200
     45 H15         20.6860     3.1440   -60.9100 hc         1 OXW       0.062200
     46 H16         22.5560     5.3730   -58.0290 h1         1 OXW       0.037200
     47 H17         21.5260     6.4960   -58.9120 h1         1 OXW       0.037200
     48 H18         20.8680     4.7760   -56.4970 h1         1 OXW       0.033700
     49 H19         19.7030     5.8840   -57.2400 h1         1 OXW       0.033700
     50 H20         19.3190     4.1640   -57.0750 h1         1 OXW       0.033700
@<TRIPOS>BOND
     1     1     3 ar  
     2     1    16 ar  
     3     1    26 1   
     4     2    16 ar  
     5     2    17 ar  
     6     2    32 1   
     7     3    18 ar  
     8     4     5 ar  
     9     4     9 ar  
    10     4    19 1   
    11     5     6 ar  
    12     5    15 1   
    13     6     7 ar  
    14     6    33 1   
    15     7     8 ar  
    16     7    30 1   
    17     8     9 ar  
    18     8    34 1   
    19     9    35 1   
    20    10    24 1   
    21    10    25 2   
    22    10    36 1   
    23    11    14 1   
    24    11    22 1   
    25    11    27 1   
    26    11    37 1   
    27    12    13 1   
    28    12    27 1   
    29    12    38 1   
    30    12    39 1   
    31    13    28 1   
    32    13    29 1   
    33    14    28 1   
    34    14    40 1   
    35    14    41 1   
    36    15    31 3   
    37    17    18 ar  
    38    17    20 1   
    39    18    19 1   
    40    19    21 1   
    41    20    21 2   
    42    22    23 1   
    43    22    25 1   
    44    23    24 2   
    45    23    42 1   
    46    24    26 1   
    47    26    43 1   
    48    27    44 1   
    49    27    45 1   
    50    28    46 1   
    51    28    47 1   
    52    29    48 1   
    53    29    49 1   
    54    29    50 1   
@<TRIPOS>SUBSTRUCTURE
     1 OXW         1 TEMP              0 ****  ****    0 ROOT
