@<TRIPOS>MOLECULE
OXZ
   21    21     1     0     0
SMALL
abcg2


@<TRIPOS>ATOM
      1 C6           0.6830     0.3460     2.0720 c3         1 OXZ       0.166600
      2 C5           0.0460    -0.2340     0.8260 c6         1 OXZ       0.170300
      3 C4           0.7900     0.1980    -0.4430 c6         1 OXZ       0.144300
      4 C3           0.0100    -0.2390    -1.6770 c6         1 OXZ       0.133300
      5 C2          -1.4480     0.1810    -1.5410 c6         1 OXZ       0.076800
      6 O6           0.0370    -0.1830     3.2050 oh         1 OXZ      -0.649000
      7 O5          -1.2810     0.2400     0.7700 os         1 OXZ      -0.259300
      8 O4           2.0790    -0.3660    -0.4110 oh         1 OXZ      -0.657000
      9 O3           0.6340     0.3420    -2.8000 oh         1 OXZ      -0.666000
     10 N1          -1.9490    -0.3960    -0.3060 n7         1 OXZ      -0.596900
     11 H1C1         0.6110     1.4420     2.0350 h1         1 OXZ       0.033700
     12 H1C2         1.7490     0.0960     2.0590 h1         1 OXZ       0.033700
     13 H2           0.0550    -1.3330     0.8880 h1         1 OXZ       0.079700
     14 H3           0.8370     1.3000    -0.4480 h1         1 OXZ       0.047700
     15 H4           0.0450    -1.3360    -1.7290 h1         1 OXZ       0.057700
     16 H5C1        -2.0410    -0.2280    -2.3620 h1         1 OXZ       0.054200
     17 H5C2        -1.5360     1.2760    -1.5730 h1         1 OXZ       0.054200
     18 HA           0.5030     0.1300     3.9850 ho         1 OXZ       0.442000
     19 HB           2.5520    -0.0700    -1.1950 ho         1 OXZ       0.459000
     20 HC           0.3560    -0.1350    -3.5870 ho         1 OXZ       0.450000
     21 H1          -2.9160    -0.1220    -0.1680 hn         1 OXZ       0.424000
@<TRIPOS>BOND
     1     1     2 1   
     2     1     6 1   
     3     1    11 1   
     4     1    12 1   
     5     2     3 1   
     6     2     7 1   
     7     2    13 1   
     8     3     4 1   
     9     3     8 1   
    10     3    14 1   
    11     4     5 1   
    12     4     9 1   
    13     4    15 1   
    14     5    10 1   
    15     5    16 1   
    16     5    17 1   
    17     6    18 1   
    18     7    10 1   
    19     8    19 1   
    20     9    20 1   
    21    10    21 1   
@<TRIPOS>SUBSTRUCTURE
     1 OXZ         1 TEMP              0 ****  ****    0 ROOT
