@<TRIPOS>MOLECULE
OXZ
   21    21     1     0     0
SMALL
No Charge or Current Charge


@<TRIPOS>ATOM
      1 C6           0.7130     0.2820     2.1710 c3         1 OXZ       0.166600
      2 C5           0.0810    -0.2790     0.8560 c6         1 OXZ       0.170300
      3 C4           0.8100     0.2340    -0.4230 c6         1 OXZ       0.144300
      4 C3           0.0560    -0.2600    -1.6920 c6         1 OXZ       0.133300
      5 C2          -1.4390     0.1540    -1.5980 c6         1 OXZ       0.076800
      6 O6           0.0190    -0.1350     3.3630 oh         1 OXZ      -0.649000
      7 O5          -1.3230     0.1050     0.8170 os         1 OXZ      -0.259300
      8 O4           2.1850    -0.1910    -0.4730 oh         1 OXZ      -0.657000
      9 O3           0.6720     0.2770    -2.8790 oh         1 OXZ      -0.666000
     10 N1          -2.0600    -0.3710    -0.3550 n7         1 OXZ      -0.596900
     11 H1C1         0.7210     1.3780     2.1050 h1         1 OXZ       0.033700
     12 H1C2         1.7600    -0.0480     2.2170 h1         1 OXZ       0.033700
     13 H2           0.1390    -1.3760     0.8870 h1         1 OXZ       0.079700
     14 H3           0.7680     1.3330    -0.4130 h1         1 OXZ       0.047700
     15 H4           0.1010    -1.3600    -1.7130 h1         1 OXZ       0.057700
     16 H5C1        -1.9900    -0.2290    -2.4700 h1         1 OXZ       0.054200
     17 H5C2        -1.5160     1.2520    -1.6080 h1         1 OXZ       0.054200
     18 HA           0.4700     0.2960     4.1230 ho         1 OXZ       0.442000
     19 HB           2.4550    -0.0590    -1.4120 ho         1 OXZ       0.459000
     20 HC           0.2050    -0.1170    -3.6500 ho         1 OXZ       0.450000
     21 H1          -3.0110     0.0220    -0.2540 hn         1 OXZ       0.424000
@<TRIPOS>BOND
     1     1     2 1   
     2     1     6 1   
     3     1    11 1   
     4     1    12 1   
     5     2     3 1   
     6     2     7 1   
     7     2    13 1   
     8     3     4 1   
     9     3     8 1   
    10     3    14 1   
    11     4     5 1   
    12     4     9 1   
    13     4    15 1   
    14     5    10 1   
    15     5    16 1   
    16     5    17 1   
    17     6    18 1   
    18     7    10 1   
    19     8    19 1   
    20     9    20 1   
    21    10    21 1   
@<TRIPOS>SUBSTRUCTURE
     1 OXZ         1 TEMP              0 ****  ****    0 ROOT
