@<TRIPOS>MOLECULE
OY0
   45    45     1     0     0
SMALL
abcg2


@<TRIPOS>ATOM
      1 CAA         -6.1220     2.5460     1.0080 c3         1 OY0      -0.091100
      2 CAB         -4.3540    -0.8460    -2.0120 c3         1 OY0      -0.090767
      3 CAC         -4.9250    -1.9940     0.1360 c3         1 OY0      -0.090767
      4 CAD         -2.6920    -2.2910    -0.8410 c3         1 OY0      -0.090767
      5 NAE          5.2390    -0.9860    -1.0980 n8         1 OY0      -1.000100
      6 OAF         -1.6810     0.9500    -1.2910 o          1 OY0      -0.570100
      7 OAG          5.5980    -0.3310     1.2690 o          1 OY0      -0.547000
      8 OAH          5.3790     1.5110    -0.4070 o          1 OY0      -0.547000
      9 CAI          1.2680    -0.8460     1.1230 ca         1 OY0      -0.172000
     10 CAJ          1.0780     1.0260    -0.3860 ca         1 OY0      -0.172000
     11 CAK          2.6420    -0.8120     1.0130 ca         1 OY0       0.017500
     12 CAL          2.4590     1.0640    -0.4900 ca         1 OY0       0.017500
     13 CAM         -5.5310     1.1580     0.7970 c3         1 OY0      -0.073400
     14 CAN         -4.1430     1.2330     0.1700 c3         1 OY0      -0.069400
     15 CAP         -1.9000     0.3420    -0.2600 c          1 OY0       0.609100
     16 CAQ          0.4690     0.0630     0.4210 ca         1 OY0       0.036000
     17 CAR          3.2360     0.1450     0.1990 ca         1 OY0      -0.305500
     18 CAS         -3.3000    -0.0520     0.1860 c3         1 OY0      -0.123700
     19 CAT         -3.8220    -1.2710    -0.6440 c3         1 OY0      -0.030000
     20 SAU          4.9920     0.1810     0.0480 sy         1 OY0       1.129600
     21 HAA         -7.1240     2.4900     1.4370 hc         1 OY0       0.034700
     22 HAAA        -5.5030     3.1390     1.6830 hc         1 OY0       0.034700
     23 HAB         -5.2170    -0.1840    -1.9280 hc         1 OY0       0.038589
     24 HABA        -3.5960    -0.3320    -2.6030 hc         1 OY0       0.038589
     25 HABB        -4.6760    -1.7240    -2.5770 hc         1 OY0       0.038589
     26 HAC         -5.2230    -2.9000    -0.3970 hc         1 OY0       0.038589
     27 HACA        -4.5730    -2.2940     1.1260 hc         1 OY0       0.038589
     28 HACB        -5.8200    -1.3910     0.2700 hc         1 OY0       0.038589
     29 HAD         -1.8750    -1.9090    -1.4560 hc         1 OY0       0.038589
     30 HADA        -2.2740    -2.6170     0.1140 hc         1 OY0       0.038589
     31 HADB        -3.0760    -3.1800    -1.3440 hc         1 OY0       0.038589
     32 HNAE         6.2100    -1.2860    -1.1170 hn         1 OY0       0.470500
     33 HNAA         4.9490    -0.6890    -2.0240 hn         1 OY0       0.470500
     34 HAI          0.8050    -1.5940     1.7550 ha         1 OY0       0.132000
     35 HAJ          0.4930     1.7570    -0.9190 ha         1 OY0       0.132000
     36 HAK          3.2390    -1.5320     1.5560 ha         1 OY0       0.137000
     37 HAL          2.9170     1.8250    -1.1070 ha         1 OY0       0.137000
     38 HAM         -5.4780     0.6320     1.7550 hc         1 OY0       0.038700
     39 HAN         -4.2260     1.6110    -0.8520 hc         1 OY0       0.053200
     40 HANA        -3.5780     1.9930     0.7210 hc         1 OY0       0.053200
     41 HNAO        -1.1960    -0.5880     1.3940 hn         1 OY0       0.153000
     42 HAS         -3.2430    -0.3910     1.2270 hc         1 OY0       0.048700
     43 H23         -6.1970     3.0900     0.0650 hc         1 OY0       0.034700
     44 H24         -6.2070     0.5790     0.1650 hc         1 OY0       0.038700
     45 NAO         -0.9080    -0.0360     0.6000 ns         1 OY0      -0.154000
@<TRIPOS>BOND
     1     1    13 1   
     2     1    21 1   
     3     1    22 1   
     4     1    43 1   
     5     2    19 1   
     6     2    23 1   
     7     2    24 1   
     8     2    25 1   
     9     3    19 1   
    10     3    26 1   
    11     3    27 1   
    12     3    28 1   
    13     4    19 1   
    14     4    29 1   
    15     4    30 1   
    16     4    31 1   
    17     5    20 1   
    18     5    32 1   
    19     5    33 1   
    20     6    15 2   
    21     7    20 2   
    22     8    20 2   
    23     9    11 ar  
    24     9    16 ar  
    25     9    34 1   
    26    10    12 ar  
    27    10    16 ar  
    28    10    35 1   
    29    11    17 ar  
    30    11    36 1   
    31    12    17 ar  
    32    12    37 1   
    33    13    14 1   
    34    13    38 1   
    35    13    44 1   
    36    14    18 1   
    37    14    39 1   
    38    14    40 1   
    39    15    18 1   
    40    15    45 1   
    41    16    45 1   
    42    17    20 1   
    43    18    19 1   
    44    18    42 1   
    45    41    45 1   
@<TRIPOS>SUBSTRUCTURE
     1 OY0         1 TEMP              0 ****  ****    0 ROOT
