@<TRIPOS>MOLECULE
OY0
   45    45     1     0     0
SMALL
No Charge or Current Charge


@<TRIPOS>ATOM
      1 CAA         -5.9460     2.4350     1.5780 c3         1 OY0      -0.091100
      2 CAB         -4.6400    -0.6840    -2.1670 c3         1 OY0      -0.090767
      3 CAC         -5.0590    -2.0460    -0.0720 c3         1 OY0      -0.090767
      4 CAD         -2.9140    -2.3100    -1.3090 c3         1 OY0      -0.090767
      5 NAE          5.5960    -1.1180    -0.2020 n8         1 OY0      -1.000100
      6 OAF         -1.7260     0.8670    -1.5670 o          1 OY0      -0.570100
      7 OAG          5.6710     0.6030     1.5560 o          1 OY0      -0.547000
      8 OAH          5.5870     1.2060    -0.9400 o          1 OY0      -0.547000
      9 CAI          1.3090    -0.2690     1.3980 ca         1 OY0      -0.172000
     10 CAJ          1.2190     0.4760    -0.9090 ca         1 OY0      -0.172000
     11 CAK          2.7100    -0.1620     1.3860 ca         1 OY0       0.017500
     12 CAL          2.6200     0.5850    -0.9300 ca         1 OY0       0.017500
     13 CAM         -5.4360     1.0770     1.0580 c3         1 OY0      -0.073400
     14 CAN         -4.1180     1.1950     0.2580 c3         1 OY0      -0.069400
     15 CAP         -1.8940     0.2720    -0.5080 c          1 OY0       0.609100
     16 CAQ          0.5490     0.0530     0.2590 ca         1 OY0       0.036000
     17 CAR          3.3700     0.2670     0.2190 ca         1 OY0      -0.305500
     18 CAS         -3.3090    -0.1220    -0.0010 c3         1 OY0      -0.123700
     19 CAT         -3.9840    -1.2590    -0.8810 c3         1 OY0      -0.030000
     20 SAU          5.1570     0.4030     0.2020 sy         1 OY0       1.129600
     21 HAA         -6.8930     2.3060     2.1160 hc         1 OY0       0.034700
     22 HAAA        -5.2210     2.8860     2.2660 hc         1 OY0       0.034700
     23 HAB         -5.4710    -0.0110    -1.9250 hc         1 OY0       0.038589
     24 HABA        -3.9150    -0.1280    -2.7720 hc         1 OY0       0.038589
     25 HABB        -5.0450    -1.4910    -2.7910 hc         1 OY0       0.038589
     26 HAC         -5.4000    -2.9260    -0.6310 hc         1 OY0       0.038589
     27 HACA        -4.6550    -2.4000     0.8840 hc         1 OY0       0.038589
     28 HACB        -5.9500    -1.4500     0.1340 hc         1 OY0       0.038589
     29 HAD         -2.1750    -1.8850    -1.9990 hc         1 OY0       0.038589
     30 HADA        -2.3820    -2.7070    -0.4360 hc         1 OY0       0.038589
     31 HADB        -3.3790    -3.1570    -1.8290 hc         1 OY0       0.038589
     32 HNAE         6.2050    -0.9370    -0.9970 hn         1 OY0       0.470500
     33 HNAA         4.7460    -1.4830    -0.6230 hn         1 OY0       0.470500
     34 HAI          0.8120    -0.6030     2.3070 ha         1 OY0       0.132000
     35 HAJ          0.6760     0.7180    -1.8160 ha         1 OY0       0.132000
     36 HAK          3.2750    -0.4150     2.2820 ha         1 OY0       0.137000
     37 HAL          3.1140     0.9160    -1.8430 ha         1 OY0       0.137000
     38 HAM         -5.2970     0.3970     1.9080 hc         1 OY0       0.038700
     39 HAN         -4.3190     1.7040    -0.6930 hc         1 OY0       0.053200
     40 HANA        -3.4600     1.8730     0.8170 hc         1 OY0       0.053200
     41 HNAO        -1.1700    -0.5430     1.1980 hn         1 OY0       0.153000
     42 HAS         -3.1510    -0.5740     0.9870 hc         1 OY0       0.048700
     43 H23         -6.1150     3.1300     0.7470 hc         1 OY0       0.034700
     44 H24         -6.2170     0.6580     0.4160 hc         1 OY0       0.038700
     45 NAO         -0.8620    -0.0870     0.3500 ns         1 OY0      -0.154000
@<TRIPOS>BOND
     1     1    13 1   
     2     1    21 1   
     3     1    22 1   
     4     1    43 1   
     5     2    19 1   
     6     2    23 1   
     7     2    24 1   
     8     2    25 1   
     9     3    19 1   
    10     3    26 1   
    11     3    27 1   
    12     3    28 1   
    13     4    19 1   
    14     4    29 1   
    15     4    30 1   
    16     4    31 1   
    17     5    20 1   
    18     5    32 1   
    19     5    33 1   
    20     6    15 2   
    21     7    20 2   
    22     8    20 2   
    23     9    11 ar  
    24     9    16 ar  
    25     9    34 1   
    26    10    12 ar  
    27    10    16 ar  
    28    10    35 1   
    29    11    17 ar  
    30    11    36 1   
    31    12    17 ar  
    32    12    37 1   
    33    13    14 1   
    34    13    38 1   
    35    13    44 1   
    36    14    18 1   
    37    14    39 1   
    38    14    40 1   
    39    15    18 1   
    40    15    45 1   
    41    16    45 1   
    42    17    20 1   
    43    18    19 1   
    44    18    42 1   
    45    41    45 1   
@<TRIPOS>SUBSTRUCTURE
     1 OY0         1 TEMP              0 ****  ****    0 ROOT
