@<TRIPOS>MOLECULE
OY2
   40    41     1     0     0
SMALL
No Charge or Current Charge


@<TRIPOS>ATOM
      1 C1          -4.5800    -4.1530   -27.9080 c3         1 OY2      -0.152400
      2 C6          -1.9880    -4.9270   -26.4000 ca         1 OY2      -0.089000
      3 C5          -1.2180    -6.1100   -26.2140 ca         1 OY2       0.310000
      4 C3          -3.3700    -5.4620   -24.4560 c6         1 OY2       0.078000
      5 C14         -1.4480    -9.3260   -26.5630 c3         1 OY2      -0.122100
      6 C11          3.7390    -6.7560   -28.8790 c3         1 OY2       0.153900
      7 C9           0.4760    -5.2340   -27.7830 ca         1 OY2      -0.111600
      8 C8          -0.3250    -4.0950   -27.9890 ca         1 OY2      -0.094000
      9 N           -3.3010    -4.8500   -25.8000 n          1 OY2      -0.230400
     10 C           -4.4620    -4.2620   -26.3720 c          1 OY2       0.611100
     11 O           -5.3870    -3.8820   -25.6610 o          1 OY2      -0.589100
     12 C12          0.0150    -6.2320   -26.8930 ca         1 OY2      -0.128000
     13 C2          -5.9570    -4.5890   -28.4590 c3         1 OY2      -0.079100
     14 C4          -2.9400    -6.9440   -24.5390 c6         1 OY2       0.204800
     15 C7          -1.5470    -3.9500   -27.3180 ca         1 OY2      -0.107000
     16 N1          -1.6800    -7.1370   -25.3240 nh         1 OY2      -0.831400
     17 O1           2.4730    -6.5310   -28.2330 os         1 OY2      -0.442100
     18 O2           2.2180    -4.5170   -29.2880 o          1 OY2      -0.490000
     19 H1          -3.7910    -4.7360   -28.3940 hc         1 OY2       0.064200
     20 H2          -4.4030    -3.1070   -28.1820 hc         1 OY2       0.064200
     21 H3          -2.6880    -4.9220   -23.7850 h1         1 OY2       0.077200
     22 H4          -4.3800    -5.4010   -24.0280 h1         1 OY2       0.077200
     23 H5          -1.0190   -10.3310   -26.4850 hc         1 OY2       0.043367
     24 H6          -2.5340    -9.4220   -26.6770 hc         1 OY2       0.043367
     25 H7          -1.0450    -8.8510   -27.4650 hc         1 OY2       0.043367
     26 H8           4.1640    -7.7170   -28.5620 h1         1 OY2       0.048367
     27 H9           3.6240    -6.7780   -29.9700 h1         1 OY2       0.048367
     28 H10          4.4570    -5.9660   -28.6210 h1         1 OY2       0.048367
     29 H11         -0.0010    -3.3120   -28.6730 ha         1 OY2       0.139000
     30 H12          0.6250    -7.1130   -26.7330 ha         1 OY2       0.133000
     31 H13         -1.4920    -9.0530   -24.4330 h1         1 OY2       0.049700
     32 H14         -0.0190    -8.4640   -25.1740 h1         1 OY2       0.049700
     33 H15         -5.9760    -4.5060   -29.5520 hc         1 OY2       0.042700
     34 H16         -6.1670    -5.6320   -28.1910 hc         1 OY2       0.042700
     35 H17         -6.7590    -3.9590   -28.0550 hc         1 OY2       0.042700
     36 H18         -3.7530    -7.5160   -25.0100 h1         1 OY2       0.047700
     37 H19         -2.8190    -7.3290   -23.5150 h1         1 OY2       0.047700
     38 H20         -2.1290    -3.0490   -27.4890 ha         1 OY2       0.122000
     39 C13         -1.1080    -8.5050   -25.3050 c3         1 OY2       0.227800
     40 C10          1.7970    -5.3700   -28.5150 c          1 OY2       0.605700
@<TRIPOS>BOND
     1     1    10 1   
     2     1    13 1   
     3     1    19 1   
     4     1    20 1   
     5     2     3 ar  
     6     2     9 1   
     7     2    15 ar  
     8     3    12 ar  
     9     3    16 1   
    10     4     9 1   
    11     4    14 1   
    12     4    21 1   
    13     4    22 1   
    14     5    23 1   
    15     5    24 1   
    16     5    25 1   
    17     5    39 1   
    18     6    17 1   
    19     6    26 1   
    20     6    27 1   
    21     6    28 1   
    22     7     8 ar  
    23     7    12 ar  
    24     7    40 1   
    25     8    15 ar  
    26     8    29 1   
    27     9    10 1   
    28    10    11 2   
    29    12    30 1   
    30    13    33 1   
    31    13    34 1   
    32    13    35 1   
    33    14    16 1   
    34    14    36 1   
    35    14    37 1   
    36    15    38 1   
    37    16    39 1   
    38    17    40 1   
    39    18    40 2   
    40    31    39 1   
    41    32    39 1   
@<TRIPOS>SUBSTRUCTURE
     1 OY2         1 TEMP              0 ****  ****    0 ROOT
