@<TRIPOS>MOLECULE
OY2
   40    41     1     0     0
SMALL
abcg2


@<TRIPOS>ATOM
      1 C1          -4.4790    -4.2480   -27.9120 c3         1 OY2      -0.152400
      2 C6          -2.0400    -4.9870   -26.4730 ca         1 OY2      -0.089000
      3 C5          -1.2620    -6.1450   -26.2290 ca         1 OY2       0.310000
      4 C3          -3.2920    -5.4820   -24.5050 c6         1 OY2       0.078000
      5 C14         -1.4070    -9.3410   -26.3910 c3         1 OY2      -0.122100
      6 C11          3.5580    -6.7240   -28.9430 c3         1 OY2       0.153900
      7 C9           0.4160    -5.2390   -27.7480 ca         1 OY2      -0.111600
      8 C8          -0.3230    -4.0720   -27.9050 ca         1 OY2      -0.094000
      9 N           -3.2850    -4.8810   -25.8290 n          1 OY2      -0.230400
     10 C           -4.4710    -4.5350   -26.4250 c          1 OY2       0.611100
     11 O           -5.4980    -4.4810   -25.7710 o          1 OY2      -0.589100
     12 C12         -0.0450    -6.2550   -26.9160 ca         1 OY2      -0.128000
     13 C2          -5.8600    -4.4250   -28.5250 c3         1 OY2      -0.079100
     14 C4          -2.9470    -6.9480   -24.6530 c6         1 OY2       0.204800
     15 C7          -1.5340    -3.9540   -27.2490 ca         1 OY2      -0.107000
     16 N1          -1.6830    -7.0970   -25.3420 nh         1 OY2      -0.831400
     17 O1           2.3190    -6.5070   -28.2690 os         1 OY2      -0.442100
     18 O2           2.1380    -4.4930   -29.2070 o          1 OY2      -0.490000
     19 H1          -3.7550    -4.8810   -28.4270 hc         1 OY2       0.064200
     20 H2          -4.1430    -3.2200   -28.0720 hc         1 OY2       0.064200
     21 H3          -2.5620    -4.9740   -23.8720 h1         1 OY2       0.077200
     22 H4          -4.2700    -5.3690   -24.0500 h1         1 OY2       0.077200
     23 H5          -0.9310   -10.3100   -26.2380 hc         1 OY2       0.043367
     24 H6          -2.4840    -9.5010   -26.4370 hc         1 OY2       0.043367
     25 H7          -1.0800    -8.9590   -27.3590 hc         1 OY2       0.043367
     26 H8           3.8930    -7.7110   -28.6390 h1         1 OY2       0.048367
     27 H9           3.4320    -6.7020   -30.0250 h1         1 OY2       0.048367
     28 H10          4.3040    -5.9840   -28.6530 h1         1 OY2       0.048367
     29 H11          0.0400    -3.2630   -28.5230 ha         1 OY2       0.139000
     30 H12          0.5530    -7.1460   -26.8040 ha         1 OY2       0.133000
     31 H13         -1.3380    -8.8320   -24.3020 h1         1 OY2       0.049700
     32 H14          0.0420    -8.2700   -25.1950 h1         1 OY2       0.049700
     33 H15         -5.8150    -4.2110   -29.5920 hc         1 OY2       0.042700
     34 H16         -6.2270    -5.4440   -28.4060 hc         1 OY2       0.042700
     35 H17         -6.5910    -3.7500   -28.0820 hc         1 OY2       0.042700
     36 H18         -3.7620    -7.4640   -25.1760 h1         1 OY2       0.047700
     37 H19         -2.8610    -7.4020   -23.6630 h1         1 OY2       0.047700
     38 H20         -2.1040    -3.0410   -27.3480 ha         1 OY2       0.122000
     39 C13         -1.0420    -8.3930   -25.2550 c3         1 OY2       0.227800
     40 C10          1.7000    -5.3560   -28.4830 c          1 OY2       0.605700
@<TRIPOS>BOND
     1     1    10 1   
     2     1    13 1   
     3     1    19 1   
     4     1    20 1   
     5     2     3 ar  
     6     2     9 1   
     7     2    15 ar  
     8     3    12 ar  
     9     3    16 1   
    10     4     9 1   
    11     4    14 1   
    12     4    21 1   
    13     4    22 1   
    14     5    23 1   
    15     5    24 1   
    16     5    25 1   
    17     5    39 1   
    18     6    17 1   
    19     6    26 1   
    20     6    27 1   
    21     6    28 1   
    22     7     8 ar  
    23     7    12 ar  
    24     7    40 1   
    25     8    15 ar  
    26     8    29 1   
    27     9    10 1   
    28    10    11 2   
    29    12    30 1   
    30    13    33 1   
    31    13    34 1   
    32    13    35 1   
    33    14    16 1   
    34    14    36 1   
    35    14    37 1   
    36    15    38 1   
    37    16    39 1   
    38    17    40 1   
    39    18    40 2   
    40    31    39 1   
    41    32    39 1   
@<TRIPOS>SUBSTRUCTURE
     1 OY2         1 TEMP              0 ****  ****    0 ROOT
