@<TRIPOS>MOLECULE
OY4
   41    43     1     0     0
SMALL
bcc


@<TRIPOS>ATOM
      1 C2          -5.1330    -1.6680    -0.9950 ca         1 OY4       0.128900
      2 C3          -6.3440    -1.0380    -0.7410 ca         1 OY4      -0.167000
      3 C4          -6.3880     0.1210     0.0350 ca         1 OY4      -0.072000
      4 C5          -5.1760     0.5840     0.5080 ca         1 OY4      -0.127300
      5 C6          -4.5140     1.6800     1.3080 cy         1 OY4      -0.034100
      6 C7          -3.1710     0.9090     1.0700 cy         1 OY4       0.280800
      7 N10         -0.0870     1.9960    -0.6370 n2         1 OY4      -0.515200
      8 C12         -0.2960     0.0830     0.5760 cc         1 OY4       0.220700
      9 N13         -0.9240    -0.8870     1.1560 nd         1 OY4      -0.316300
     10 O14         -0.0210    -1.8250     1.4310 os         1 OY4       0.115600
     11 C16          1.0880    -0.2930     0.4850 cc         1 OY4       0.343300
     12 C18          3.7790    -0.4880     0.2290 c3         1 OY4      -0.062300
     13 C19          5.0450     0.1330    -0.3420 c3         1 OY4       0.116000
     14 C21          7.4320    -0.3760    -0.3570 c          1 OY4       0.666100
     15 C24         -3.9880    -0.0750     0.2480 ca         1 OY4      -0.121300
     16 F1          -5.1520    -2.7810    -1.7520 f          1 OY4      -0.144900
     17 N8          -2.1640     1.6980     0.4100 nu         1 OY4      -0.837200
     18 C9          -0.9020     1.3200     0.0900 ce         1 OY4       0.558200
     19 O11         -0.6470     3.1610    -1.0870 oh         1 OY4      -0.382500
     20 N15          1.2110    -1.4640     1.0220 nd         1 OY4      -0.370300
     21 S17          2.3960     0.6130    -0.1960 ss         1 OY4      -0.161400
     22 N20          6.1780    -0.6960     0.0020 ns         1 OY4      -0.579900
     23 C22          8.5030    -1.3450     0.0740 c3         1 OY4      -0.178100
     24 O23          7.6880     0.6370    -0.9960 o          1 OY4      -0.604100
     25 C25         -3.9090    -1.2250    -0.5110 ca         1 OY4      -0.116000
     26 H1          -7.2530    -1.4570    -1.1540 ha         1 OY4       0.150000
     27 H2          -7.3320     0.6130     0.2290 ha         1 OY4       0.144000
     28 H3          -4.5470     2.6700     0.8500 hc         1 OY4       0.069200
     29 H4          -4.8080     1.7720     2.3540 hc         1 OY4       0.069200
     30 H5          -2.7770     0.4800     1.9900 h1         1 OY4       0.094700
     31 H6           3.6070    -1.4750    -0.2020 h1         1 OY4       0.080200
     32 H7           3.8490    -0.5840     1.3130 h1         1 OY4       0.080200
     33 H8           4.9570     0.2250    -1.4270 h1         1 OY4       0.062200
     34 H9           5.1830     1.1420     0.0580 h1         1 OY4       0.062200
     35 H10         -2.5160     2.4700    -0.1380 hn         1 OY4       0.449800
     36 H11          0.0230     3.5390    -1.6650 ho         1 OY4       0.437000
     37 H12          6.0170    -1.5410     0.5240 hn         1 OY4       0.317500
     38 H13          8.1250    -2.1870     0.6520 hc         1 OY4       0.060700
     39 H14          9.0140    -1.7330    -0.8060 hc         1 OY4       0.060700
     40 H15          9.2450    -0.8200     0.6750 hc         1 OY4       0.060700
     41 H16         -2.9900    -1.7560    -0.7250 ha         1 OY4       0.162000
@<TRIPOS>BOND
     1     1     2 ar  
     2     1    16 1   
     3     1    25 ar  
     4     2     3 ar  
     5     2    26 1   
     6     3     4 ar  
     7     3    27 1   
     8     4     5 1   
     9     4    15 ar  
    10     5     6 1   
    11     5    28 1   
    12     5    29 1   
    13     6    15 1   
    14     6    17 1   
    15     6    30 1   
    16     7    18 2   
    17     7    19 1   
    18     8     9 2   
    19     8    11 1   
    20     8    18 1   
    21     9    10 1   
    22    10    20 1   
    23    11    20 2   
    24    11    21 1   
    25    12    13 1   
    26    12    21 1   
    27    12    31 1   
    28    12    32 1   
    29    13    22 1   
    30    13    33 1   
    31    13    34 1   
    32    14    22 1   
    33    14    23 1   
    34    14    24 2   
    35    15    25 ar  
    36    17    18 1   
    37    17    35 1   
    38    19    36 1   
    39    22    37 1   
    40    23    38 1   
    41    23    39 1   
    42    23    40 1   
    43    25    41 1   
@<TRIPOS>SUBSTRUCTURE
     1 OY4         1 TEMP              0 ****  ****    0 ROOT
