@<TRIPOS>MOLECULE
OY4
   41    43     1     0     0
SMALL
No Charge or Current Charge


@<TRIPOS>ATOM
      1 C2          -3.8910    -1.6090    -1.2990 ca         1 OY4       0.164000
      2 C3          -5.1710    -1.0460    -1.5840 ca         1 OY4      -0.149000
      3 C4          -5.6370     0.1000    -0.8890 ca         1 OY4      -0.054000
      4 C5          -4.7570     0.6140     0.0640 ca         1 OY4      -0.127300
      5 C6          -4.6420     1.7250     1.0860 cy         1 OY4      -0.034100
      6 C7          -3.1950     1.0970     1.4060 cy         1 OY4       0.280800
      7 N10          0.2280     2.3270     0.5810 n2         1 OY4      -0.416700
      8 C12         -0.2610     0.1490     1.4900 cc         1 OY4       0.220700
      9 N13         -0.7280    -0.4410     2.5760 nd         1 OY4      -0.316300
     10 O14         -0.0150    -1.6890     2.5980 os         1 OY4       0.115600
     11 C16          0.6800    -0.6840     0.8640 cc         1 OY4       0.343300
     12 C18          3.2960    -0.8500    -0.1540 c3         1 OY4      -0.014400
     13 C19          4.2690    -0.5880    -1.3190 c3         1 OY4       0.116000
     14 C21          6.4810    -0.3100    -0.1470 c          1 OY4       0.599100
     15 C24         -3.5410     0.0840     0.3310 ca         1 OY4      -0.121300
     16 F1          -3.4850    -2.7040    -1.9770 f          1 OY4      -0.180000
     17 N8          -2.0250     1.8850     1.0640 nu         1 OY4      -0.892400
     18 C9          -0.6750     1.4880     1.0140 ce         1 OY4       0.558200
     19 O11         -0.2290     3.5940     0.1120 oh         1 OY4      -0.520000
     20 N15          0.8820    -1.8140     1.4900 nd         1 OY4      -0.370300
     21 S17          1.5750    -0.3660    -0.6230 ss         1 OY4      -0.209300
     22 N20          5.6430    -0.9890    -1.0000 ns         1 OY4      -0.512900
     23 C22          7.8570    -0.9380     0.0330 c3         1 OY4      -0.178100
     24 O23          6.1480     0.7190     0.4220 o          1 OY4      -0.604100
     25 C25         -3.0380    -1.0460    -0.3160 ca         1 OY4      -0.098000
     26 H1          -5.7990    -1.5060    -2.3430 ha         1 OY4       0.132000
     27 H2          -6.6100     0.5460    -1.0830 ha         1 OY4       0.126000
     28 H3          -4.6380     2.7370     0.6690 hc         1 OY4       0.069200
     29 H4          -5.3620     1.6710     1.9080 hc         1 OY4       0.069200
     30 H5          -3.1060     0.6360     2.3980 h1         1 OY4       0.094700
     31 H6           3.3130    -1.9160     0.1070 h1         1 OY4       0.080200
     32 H7           3.6030    -0.2710     0.7260 h1         1 OY4       0.080200
     33 H8           3.9360    -1.1490    -2.2020 h1         1 OY4       0.062200
     34 H9           4.2570     0.4800    -1.5730 h1         1 OY4       0.062200
     35 H10         -2.1500     2.8220     0.6850 hn         1 OY4       0.505000
     36 H11          0.5840     4.0830    -0.1690 ho         1 OY4       0.476000
     37 H12          6.0140    -1.8300    -1.4280 hn         1 OY4       0.317500
     38 H13          7.7350    -1.9760     0.3620 hc         1 OY4       0.060700
     39 H14          8.3250    -1.0590    -0.9510 hc         1 OY4       0.060700
     40 H15          8.4950    -0.3680     0.7170 hc         1 OY4       0.060700
     41 H16         -2.0670    -1.4750    -0.0870 ha         1 OY4       0.144000
@<TRIPOS>BOND
     1     1     2 ar  
     2     1    16 1   
     3     1    25 ar  
     4     2     3 ar  
     5     2    26 1   
     6     3     4 ar  
     7     3    27 1   
     8     4     5 1   
     9     4    15 ar  
    10     5     6 1   
    11     5    28 1   
    12     5    29 1   
    13     6    15 1   
    14     6    17 1   
    15     6    30 1   
    16     7    18 2   
    17     7    19 1   
    18     8     9 2   
    19     8    11 1   
    20     8    18 1   
    21     9    10 1   
    22    10    20 1   
    23    11    20 2   
    24    11    21 1   
    25    12    13 1   
    26    12    21 1   
    27    12    31 1   
    28    12    32 1   
    29    13    22 1   
    30    13    33 1   
    31    13    34 1   
    32    14    22 1   
    33    14    23 1   
    34    14    24 2   
    35    15    25 ar  
    36    17    18 1   
    37    17    35 1   
    38    19    36 1   
    39    22    37 1   
    40    23    38 1   
    41    23    39 1   
    42    23    40 1   
    43    25    41 1   
@<TRIPOS>SUBSTRUCTURE
     1 OY4         1 TEMP              0 ****  ****    0 ROOT
