@<TRIPOS>MOLECULE
OY6
   67    71     1     0     0
SMALL
abcg2


@<TRIPOS>ATOM
      1 N12        -40.0200   -13.2830    13.1900 nc         1 OY6      -0.641100
      2 C17        -39.0040    -1.6600     5.1690 ca         1 OY6      -0.040000
      3 C20        -39.0810    -5.6560     6.6230 ca         1 OY6      -0.040500
      4 C21        -39.2640    -6.9700     7.0090 ca         1 OY6      -0.163500
      5 C22        -39.7630    -7.2810     8.2810 ca         1 OY6       0.015000
      6 C24        -40.2770   -11.2770    11.0840 c3         1 OY6       0.125000
      7 C26        -39.1730   -12.3100    13.1030 cd         1 OY6       0.509900
      8 C28        -41.0540   -14.9920    14.5200 ca         1 OY6      -0.107000
      9 C01        -39.8410    -2.9700     1.8520 c3         1 OY6       0.156900
     10 N02        -39.1820    -2.8870     5.8210 ns         1 OY6      -0.138000
     11 S04        -37.0670   -11.0410     8.7590 ss         1 OY6       0.212000
     12 C05        -39.2260    -1.6690     3.7730 ca         1 OY6       0.079100
     13 N06        -39.9540    -8.6340     8.5710 ns         1 OY6      -0.152000
     14 O07        -39.0640    -2.3050     8.0260 o          1 OY6      -0.594100
     15 C08        -39.0640    -0.5080     3.0300 ca         1 OY6      -0.164000
     16 N09        -40.0580   -10.5910     9.8160 n          1 OY6      -0.441800
     17 O10        -40.1830    -8.5700    10.8530 o          1 OY6      -0.621100
     18 C11        -38.6810     0.6740     3.6640 ca         1 OY6      -0.105000
     19 C14        -38.4560     0.6890     5.0320 ca         1 OY6      -0.114000
     20 N15        -38.4120   -11.8930    14.1620 ns         1 OY6      -0.427400
     21 C16        -38.6180    -0.4730     5.7860 ca         1 OY6      -0.107000
     22 C19        -39.3750    -4.6060     7.5000 ca         1 OY6      -0.184600
     23 C23        -40.0680    -9.2220     9.8160 c          1 OY6       0.661100
     24 C25        -38.9620   -11.5900    11.8040 c3         1 OY6      -0.143700
     25 C27        -40.1420   -13.9300    14.4060 ca         1 OY6       0.188400
     26 C29        -41.1940   -15.6660    15.7160 ca         1 OY6      -0.073000
     27 C30        -40.4320   -15.3040    16.8370 ca         1 OY6      -0.133000
     28 C31        -39.5320   -14.2610    16.7460 ca         1 OY6      -0.038000
     29 C32        -39.3810   -13.5680    15.5390 ca         1 OY6      -0.200600
     30 C33        -38.4380   -12.4620    15.4250 c          1 OY6       0.575600
     31 C34        -39.8730   -11.4070     8.6140 c3         1 OY6       0.177300
     32 C35        -38.5660   -11.1950     7.9040 cc         1 OY6      -0.264300
     33 C36        -38.3680   -11.0850     6.5560 cd         1 OY6      -0.126000
     34 C37        -36.9990   -10.9090     6.2020 cd         1 OY6      -0.134000
     35 C38        -36.1820   -10.8530     7.2930 cc         1 OY6      -0.221000
     36 C39        -40.0670    -6.2360     9.1630 ca         1 OY6      -0.163500
     37 C40        -39.8580    -4.9240     8.7700 ca         1 OY6      -0.040500
     38 H201       -38.6690    -5.4670     5.6410 ha         1 OY6       0.127000
     39 H211       -39.0120    -7.7720     6.3250 ha         1 OY6       0.134000
     40 H241       -40.9070   -10.6540    11.7140 h1         1 OY6       0.077700
     41 H242       -40.8140   -12.2010    10.8800 h1         1 OY6       0.077700
     42 H281       -41.6370   -15.2680    13.6510 ha         1 OY6       0.131000
     43 H013       -40.1100    -4.0060     1.6690 h1         1 OY6       0.042367
     44 H011       -40.6660    -2.3170     1.5560 h1         1 OY6       0.042367
     45 H012       -38.9450    -2.7110     1.2840 h1         1 OY6       0.042367
     46 H021       -39.4100    -3.6430     5.1950 hn         1 OY6       0.168000
     47 H061       -39.7390    -9.2440     7.7980 hn         1 OY6       0.155000
     48 H081       -39.2350    -0.5170     1.9640 ha         1 OY6       0.115000
     49 H111       -38.5590     1.5760     3.0780 ha         1 OY6       0.114000
     50 H141       -38.1540     1.6030     5.5270 ha         1 OY6       0.118000
     51 H151       -37.7750   -11.1170    14.0340 hn         1 OY6       0.333500
     52 H161       -38.4480    -0.4670     6.8490 ha         1 OY6       0.152000
     53 H251       -38.3450   -12.2330    11.1680 hc         1 OY6       0.071200
     54 H252       -38.4060   -10.6690    11.9710 hc         1 OY6       0.071200
     55 H291       -41.8990   -16.4840    15.7900 ha         1 OY6       0.117000
     56 H301       -40.5510   -15.8410    17.7680 ha         1 OY6       0.121000
     57 H311       -38.9350   -13.9630    17.5970 ha         1 OY6       0.136000
     58 H342       -40.6830   -11.2340     7.8970 h1         1 OY6       0.065700
     59 H341       -39.9580   -12.4440     8.9330 h1         1 OY6       0.065700
     60 H361       -39.1780   -11.1270     5.8400 ha         1 OY6       0.135000
     61 H371       -36.6460   -10.8070     5.1860 ha         1 OY6       0.140000
     62 H381       -35.1140   -10.7080     7.3250 h4         1 OY6       0.157000
     63 H391       -40.4590    -6.4570    10.1400 ha         1 OY6       0.134000
     64 H401       -40.0890    -4.1200     9.4560 ha         1 OY6       0.127000
     65 O13        -37.7160   -12.0320    16.3190 o          1 OY6      -0.537000
     66 C18        -39.1840    -3.1660     7.1560 c          1 OY6       0.624700
     67 O03        -39.5970    -2.8740     3.2560 os         1 OY6      -0.377100
@<TRIPOS>BOND
     1     1     7 2   
     2     1    25 1   
     3     2    10 1   
     4     2    12 ar  
     5     2    21 ar  
     6     3     4 ar  
     7     3    22 ar  
     8     3    38 1   
     9     4     5 ar  
    10     4    39 1   
    11     5    13 1   
    12     5    36 ar  
    13     6    16 1   
    14     6    24 1   
    15     6    40 1   
    16     6    41 1   
    17     7    20 1   
    18     7    24 1   
    19     8    25 ar  
    20     8    26 ar  
    21     8    42 1   
    22     9    43 1   
    23     9    44 1   
    24     9    45 1   
    25     9    67 1   
    26    10    46 1   
    27    10    66 1   
    28    11    32 1   
    29    11    35 1   
    30    12    15 ar  
    31    12    67 1   
    32    13    23 1   
    33    13    47 1   
    34    14    66 2   
    35    15    18 ar  
    36    15    48 1   
    37    16    23 1   
    38    16    31 1   
    39    17    23 2   
    40    18    19 ar  
    41    18    49 1   
    42    19    21 ar  
    43    19    50 1   
    44    20    30 1   
    45    20    51 1   
    46    21    52 1   
    47    22    37 ar  
    48    22    66 1   
    49    24    53 1   
    50    24    54 1   
    51    25    29 ar  
    52    26    27 ar  
    53    26    55 1   
    54    27    28 ar  
    55    27    56 1   
    56    28    29 ar  
    57    28    57 1   
    58    29    30 1   
    59    30    65 2   
    60    31    32 1   
    61    31    58 1   
    62    31    59 1   
    63    32    33 2   
    64    33    34 1   
    65    33    60 1   
    66    34    35 2   
    67    34    61 1   
    68    35    62 1   
    69    36    37 ar  
    70    36    63 1   
    71    37    64 1   
@<TRIPOS>SUBSTRUCTURE
     1 OY6         1 TEMP              0 ****  ****    0 ROOT
