@<TRIPOS>MOLECULE
OY6
   67    71     1     0     0
SMALL
No Charge or Current Charge


@<TRIPOS>ATOM
      1 N12        -39.5690   -13.8540    13.0890 nc         1 OY6      -0.641100
      2 C17        -38.9800    -1.5460     5.0210 ca         1 OY6      -0.040000
      3 C20        -39.4590    -5.4330     6.7080 ca         1 OY6      -0.040500
      4 C21        -39.5970    -6.7570     7.1590 ca         1 OY6      -0.163500
      5 C22        -39.8570    -7.0380     8.5110 ca         1 OY6       0.015000
      6 C24        -40.3350   -11.2090    11.3480 c3         1 OY6       0.125000
      7 C26        -39.1360   -12.5940    13.0840 cd         1 OY6       0.509900
      8 C28        -40.0980   -15.7360    14.4900 ca         1 OY6      -0.107000
      9 C01        -38.4280    -3.3350     1.7770 c3         1 OY6       0.156900
     10 N02        -39.1780    -2.7110     5.8180 ns         1 OY6      -0.138000
     11 S04        -37.5890   -11.3810     8.4090 ss         1 OY6       0.212000
     12 C05        -38.7240    -1.7360     3.6440 ca         1 OY6       0.079100
     13 N06        -39.9890    -8.4000     8.8860 ns         1 OY6      -0.152000
     14 O07        -39.5600    -1.9830     7.9700 o          1 OY6      -0.594100
     15 C08        -38.5190    -0.6200     2.8020 ca         1 OY6      -0.164000
     16 N09        -40.2100   -10.4390    10.0870 n          1 OY6      -0.441800
     17 O10        -39.9130    -8.4400    11.1850 o          1 OY6      -0.621100
     18 C11        -38.5700     0.6800     3.3300 ca         1 OY6      -0.105000
     19 C14        -38.8240     0.8730     4.6950 ca         1 OY6      -0.114000
     20 N15        -38.7990   -11.8520    14.1770 ns         1 OY6      -0.427400
     21 C16        -39.0290    -0.2310     5.5400 ca         1 OY6      -0.107000
     22 C19        -39.5850    -4.3500     7.6110 ca         1 OY6      -0.184600
     23 C23        -40.0320    -9.0330    10.1210 c          1 OY6       0.661100
     24 C25        -39.0160   -11.8860    11.7640 c3         1 OY6      -0.143700
     25 C27        -39.6530   -14.4050    14.3800 ca         1 OY6       0.188400
     26 C29        -40.2120   -16.3650    15.7410 ca         1 OY6      -0.073000
     27 C30        -39.8770   -15.6640    16.9090 ca         1 OY6      -0.133000
     28 C31        -39.4310   -14.3360    16.8210 ca         1 OY6      -0.038000
     29 C32        -39.3190   -13.7090    15.5620 ca         1 OY6      -0.200600
     30 C33        -38.8510   -12.3060    15.4480 c          1 OY6       0.575600
     31 C34        -40.4110   -11.1840     8.8190 c3         1 OY6       0.177300
     32 C35        -39.2400   -11.0550     7.8800 cc         1 OY6      -0.264300
     33 C36        -39.2640   -10.6810     6.5590 cd         1 OY6      -0.126000
     34 C37        -37.9780   -10.6350     5.9590 cd         1 OY6      -0.134000
     35 C38        -36.9620   -10.9790     6.8150 cc         1 OY6      -0.221000
     36 C39        -39.9910    -5.9640     9.4130 ca         1 OY6      -0.163500
     37 C40        -39.8550    -4.6370     8.9680 ca         1 OY6      -0.040500
     38 H201       -39.2540    -5.2740     5.6520 ha         1 OY6       0.127000
     39 H211       -39.4950    -7.5730     6.4470 ha         1 OY6       0.134000
     40 H241       -40.6780   -10.5510    12.1580 h1         1 OY6       0.077700
     41 H242       -41.1100   -11.9790    11.2260 h1         1 OY6       0.077700
     42 H281       -40.3600   -16.2880    13.5910 ha         1 OY6       0.131000
     43 H013       -38.4390    -4.4200     1.6160 h1         1 OY6       0.042367
     44 H011       -39.1960    -2.8890     1.1330 h1         1 OY6       0.042367
     45 H012       -37.4450    -2.9570     1.4680 h1         1 OY6       0.042367
     46 H021       -39.1100    -3.5670     5.2840 hn         1 OY6       0.168000
     47 H061       -40.0400    -9.0360     8.1020 hn         1 OY6       0.155000
     48 H081       -38.3210    -0.7400     1.7410 ha         1 OY6       0.115000
     49 H111       -38.4120     1.5380     2.6800 ha         1 OY6       0.114000
     50 H141       -38.8630     1.8810     5.1020 ha         1 OY6       0.118000
     51 H151       -38.4850   -10.8990    14.0640 hn         1 OY6       0.333500
     52 H161       -39.2230    -0.0410     6.5910 ha         1 OY6       0.152000
     53 H251       -38.7200   -12.6000    10.9880 hc         1 OY6       0.071200
     54 H252       -38.2220   -11.1310    11.8060 hc         1 OY6       0.071200
     55 H291       -40.5580   -17.3950    15.8040 ha         1 OY6       0.117000
     56 H301       -39.9640   -16.1470    17.8800 ha         1 OY6       0.121000
     57 H311       -39.1740   -13.7970    17.7320 ha         1 OY6       0.136000
     58 H342       -41.3220   -10.8150     8.3280 h1         1 OY6       0.065700
     59 H341       -40.5690   -12.2490     9.0350 h1         1 OY6       0.065700
     60 H361       -40.1770   -10.4370     6.0230 ha         1 OY6       0.135000
     61 H371       -37.8140   -10.3550     4.9220 ha         1 OY6       0.140000
     62 H381       -35.8970   -11.0300     6.6300 h4         1 OY6       0.157000
     63 H391       -40.2110    -6.1340    10.4620 ha         1 OY6       0.134000
     64 H401       -39.9640    -3.8300     9.6900 ha         1 OY6       0.127000
     65 O13        -38.5370   -11.6060    16.3990 o          1 OY6      -0.537000
     66 C18        -39.4430    -2.9040     7.1680 c          1 OY6       0.624700
     67 O03        -38.6820    -3.0330     3.1620 os         1 OY6      -0.377100
@<TRIPOS>BOND
     1     1     7 2   
     2     1    25 1   
     3     2    10 1   
     4     2    12 ar  
     5     2    21 ar  
     6     3     4 ar  
     7     3    22 ar  
     8     3    38 1   
     9     4     5 ar  
    10     4    39 1   
    11     5    13 1   
    12     5    36 ar  
    13     6    16 1   
    14     6    24 1   
    15     6    40 1   
    16     6    41 1   
    17     7    20 1   
    18     7    24 1   
    19     8    25 ar  
    20     8    26 ar  
    21     8    42 1   
    22     9    43 1   
    23     9    44 1   
    24     9    45 1   
    25     9    67 1   
    26    10    46 1   
    27    10    66 1   
    28    11    32 1   
    29    11    35 1   
    30    12    15 ar  
    31    12    67 1   
    32    13    23 1   
    33    13    47 1   
    34    14    66 2   
    35    15    18 ar  
    36    15    48 1   
    37    16    23 1   
    38    16    31 1   
    39    17    23 2   
    40    18    19 ar  
    41    18    49 1   
    42    19    21 ar  
    43    19    50 1   
    44    20    30 1   
    45    20    51 1   
    46    21    52 1   
    47    22    37 ar  
    48    22    66 1   
    49    24    53 1   
    50    24    54 1   
    51    25    29 ar  
    52    26    27 ar  
    53    26    55 1   
    54    27    28 ar  
    55    27    56 1   
    56    28    29 ar  
    57    28    57 1   
    58    29    30 1   
    59    30    65 2   
    60    31    32 1   
    61    31    58 1   
    62    31    59 1   
    63    32    33 2   
    64    33    34 1   
    65    33    60 1   
    66    34    35 2   
    67    34    61 1   
    68    35    62 1   
    69    36    37 ar  
    70    36    63 1   
    71    37    64 1   
@<TRIPOS>SUBSTRUCTURE
     1 OY6         1 TEMP              0 ****  ****    0 ROOT
