@<TRIPOS>MOLECULE
OY9
   47    50     1     0     0
SMALL
No Charge or Current Charge


@<TRIPOS>ATOM
      1 C02        -32.9680    46.7460   -21.2900 cg         1 OY9       0.326000
      2 C03        -33.8520    46.9770   -22.3990 ca         1 OY9      -0.024000
      3 C04        -33.9430    48.2580   -22.9770 ca         1 OY9      -0.068000
      4 C05        -34.8120    48.4810   -24.0590 ca         1 OY9      -0.115000
      5 C06        -35.5910    47.4270   -24.5670 ca         1 OY9      -0.083000
      6 C07        -35.5040    46.1420   -23.9960 ca         1 OY9      -0.092300
      7 C08        -36.3520    44.9940   -24.5350 c3         1 OY9       0.217100
      8 C10        -37.9800    43.2210   -24.0060 c6         1 OY9       0.166800
      9 C11        -38.6940    42.5090   -22.8410 c6         1 OY9      -0.030200
     10 C12        -39.4810    43.4810   -21.9960 cc         1 OY9       0.190400
     11 C14        -41.0960    43.8140   -20.3700 cd         1 OY9       0.499800
     12 C17        -41.1850    46.1290   -18.1000 ca         1 OY9      -0.101300
     13 C18        -40.1930    47.0900   -17.8210 ca         1 OY9      -0.084500
     14 C19        -39.6410    47.1860   -16.5320 ca         1 OY9      -0.099000
     15 C20        -40.0780    46.3210   -15.5160 ca         1 OY9       0.130000
     16 C22        -41.0670    45.3610   -15.7850 ca         1 OY9      -0.099000
     17 C23        -41.6200    45.2650   -17.0750 ca         1 OY9      -0.084500
     18 C24        -40.0300    45.7880   -21.2540 c          1 OY9       0.558200
     19 C26        -39.2650    44.8390   -22.0740 cd         1 OY9      -0.250400
     20 C27        -38.2610    45.4510   -23.0320 c6         1 OY9       0.225000
     21 C28        -34.6320    45.9230   -22.9110 ca         1 OY9      -0.046000
     22 N01        -32.2410    46.5620   -20.3940 n1         1 OY9      -0.456000
     23 N09        -37.2870    44.4400   -23.5270 n3         1 OY9      -0.723600
     24 N13        -40.4110    42.9570   -21.1260 nc         1 OY9      -0.637300
     25 N15        -40.9540    45.1860   -20.4010 n          1 OY9      -0.320300
     26 Cl21       -39.3870    46.4400   -13.9030 cl         1 OY9      -0.208000
     27 H1         -33.3440    49.0800   -22.5890 ha         1 OY9       0.126000
     28 H2         -34.8820    49.4710   -24.5040 ha         1 OY9       0.121000
     29 H3         -36.2620    47.6100   -25.4030 ha         1 OY9       0.115000
     30 H4         -36.9100    45.3370   -25.4170 h1         1 OY9       0.041700
     31 H5         -35.6680    44.2070   -24.8790 h1         1 OY9       0.041700
     32 H6         -37.2650    42.5180   -24.4600 h1         1 OY9       0.038200
     33 H7         -38.7160    43.4810   -24.7810 h1         1 OY9       0.038200
     34 H8         -39.3420    41.7180   -23.2410 hc         1 OY9       0.073700
     35 H9         -37.9430    42.0060   -22.2180 hc         1 OY9       0.073700
     36 H10        -41.8290    43.4250   -19.6730 h5         1 OY9       0.048800
     37 H11        -42.7820    45.5870   -19.4360 h1         1 OY9       0.069200
     38 H12        -41.9010    47.0270   -19.9220 h1         1 OY9       0.069200
     39 H13        -39.8470    47.7630   -18.6040 ha         1 OY9       0.119000
     40 H14        -38.8750    47.9270   -16.3200 ha         1 OY9       0.132500
     41 H15        -41.4030    44.6930   -14.9970 ha         1 OY9       0.132500
     42 H16        -42.3850    44.5170   -17.2740 ha         1 OY9       0.119000
     43 H17        -38.8040    45.9020   -23.8770 h1         1 OY9       0.056700
     44 H18        -37.7240    46.2690   -22.5290 h1         1 OY9       0.056700
     45 H19        -34.5710    44.9320   -22.4650 ha         1 OY9       0.134000
     46 O25        -39.8770    47.0010   -21.3130 o          1 OY9      -0.541000
     47 C16        -41.7750    46.0210   -19.5000 c3         1 OY9       0.145300
@<TRIPOS>BOND
     1     1     2 1   
     2     1    22 3   
     3     2     3 ar  
     4     2    21 ar  
     5     3     4 ar  
     6     3    27 1   
     7     4     5 ar  
     8     4    28 1   
     9     5     6 ar  
    10     5    29 1   
    11     6     7 1   
    12     6    21 ar  
    13     7    23 1   
    14     7    30 1   
    15     7    31 1   
    16     8     9 1   
    17     8    23 1   
    18     8    32 1   
    19     8    33 1   
    20     9    10 1   
    21     9    34 1   
    22     9    35 1   
    23    10    19 2   
    24    10    24 1   
    25    11    24 2   
    26    11    25 1   
    27    11    36 1   
    28    12    13 ar  
    29    12    17 ar  
    30    12    47 1   
    31    13    14 ar  
    32    13    39 1   
    33    14    15 ar  
    34    14    40 1   
    35    15    16 ar  
    36    15    26 1   
    37    16    17 ar  
    38    16    41 1   
    39    17    42 1   
    40    18    19 1   
    41    18    25 1   
    42    18    46 2   
    43    19    20 1   
    44    20    23 1   
    45    20    43 1   
    46    20    44 1   
    47    21    45 1   
    48    25    47 1   
    49    37    47 1   
    50    38    47 1   
@<TRIPOS>SUBSTRUCTURE
     1 OY9         1 TEMP              0 ****  ****    0 ROOT
