@<TRIPOS>MOLECULE
OY9
   47    50     1     0     0
SMALL
abcg2


@<TRIPOS>ATOM
      1 C02        -32.9640    45.9100   -21.0490 cg         1 OY9       0.326000
      2 C03        -33.8350    46.4310   -22.0530 ca         1 OY9      -0.024000
      3 C04        -33.8090    47.7980   -22.3550 ca         1 OY9      -0.068000
      4 C05        -34.6580    48.2850   -23.3350 ca         1 OY9      -0.115000
      5 C06        -35.5220    47.4210   -24.0060 ca         1 OY9      -0.083000
      6 C07        -35.5520    46.0600   -23.7120 ca         1 OY9      -0.092300
      7 C08        -36.4870    45.1200   -24.4320 c3         1 OY9       0.217100
      8 C10        -38.1410    43.3690   -24.1430 c6         1 OY9       0.166800
      9 C11        -38.8780    42.5630   -23.0820 c6         1 OY9      -0.030200
     10 C12        -39.6370    43.4450   -22.1400 cc         1 OY9       0.190400
     11 C14        -41.2360    43.5870   -20.5260 cd         1 OY9       0.499800
     12 C17        -41.0930    46.1970   -18.2890 ca         1 OY9      -0.101300
     13 C18        -41.3770    47.4500   -17.7520 ca         1 OY9      -0.084500
     14 C19        -40.6850    47.9270   -16.6450 ca         1 OY9      -0.099000
     15 C20        -39.6930    47.1380   -16.0820 ca         1 OY9       0.130000
     16 C22        -39.3870    45.8870   -16.6010 ca         1 OY9      -0.099000
     17 C23        -40.0940    45.4230   -17.7030 ca         1 OY9      -0.084500
     18 C24        -40.1720    45.6270   -21.2230 c          1 OY9       0.558200
     19 C26        -39.4020    44.7890   -22.1000 cd         1 OY9      -0.250400
     20 C27        -38.3610    45.4480   -22.9540 c6         1 OY9       0.225000
     21 C28        -34.7010    45.5670   -22.7270 ca         1 OY9      -0.046000
     22 N01        -32.2600    45.4880   -20.2380 n1         1 OY9      -0.456000
     23 N09        -37.4280    44.4800   -23.5170 n3         1 OY9      -0.723600
     24 N13        -40.5660    42.8310   -21.3370 nc         1 OY9      -0.637300
     25 N15        -41.0930    44.9300   -20.4240 n          1 OY9      -0.320300
     26 CL21       -38.8040    47.7330   -14.6940 cl         1 OY9      -0.208000
     27 H1         -33.1350    48.4570   -21.8250 ha         1 OY9       0.126000
     28 H2         -34.6520    49.3390   -23.5770 ha         1 OY9       0.121000
     29 H3         -36.1870    47.8120   -24.7670 ha         1 OY9       0.115000
     30 H4         -37.0100    45.6710   -25.2310 h1         1 OY9       0.041700
     31 H5         -35.9050    44.3300   -24.9090 h1         1 OY9       0.041700
     32 H6         -37.4170    42.7360   -24.6550 h1         1 OY9       0.038200
     33 H7         -38.8570    43.7310   -24.9000 h1         1 OY9       0.038200
     34 H8         -39.5750    41.8620   -23.5470 hc         1 OY9       0.073700
     35 H9         -38.1690    41.9640   -22.5030 hc         1 OY9       0.073700
     36 H10        -41.9760    43.1460   -19.8670 h5         1 OY9       0.048800
     37 H11        -42.6940    45.0320   -19.1250 h1         1 OY9       0.069200
     38 H12        -42.3510    46.5300   -19.9900 h1         1 OY9       0.069200
     39 H13        -42.1430    48.0690   -18.2040 ha         1 OY9       0.119000
     40 H14        -40.9080    48.9020   -16.2340 ha         1 OY9       0.132500
     41 H15        -38.6110    45.2840   -16.1510 ha         1 OY9       0.132500
     42 H16        -39.8500    44.4490   -18.1070 ha         1 OY9       0.119000
     43 H17        -38.8590    46.0320   -23.7500 h1         1 OY9       0.056700
     44 H18        -37.8090    46.1700   -22.3490 h1         1 OY9       0.056700
     45 H19        -34.7140    44.5150   -22.4780 ha         1 OY9       0.134000
     46 O25        -40.0780    46.8520   -21.1360 o          1 OY9      -0.541000
     47 C16        -41.8960    45.6930   -19.4650 c3         1 OY9       0.145300
@<TRIPOS>BOND
     1     1     2 1   
     2     1    22 3   
     3     2     3 ar  
     4     2    21 ar  
     5     3     4 ar  
     6     3    27 1   
     7     4     5 ar  
     8     4    28 1   
     9     5     6 ar  
    10     5    29 1   
    11     6     7 1   
    12     6    21 ar  
    13     7    23 1   
    14     7    30 1   
    15     7    31 1   
    16     8     9 1   
    17     8    23 1   
    18     8    32 1   
    19     8    33 1   
    20     9    10 1   
    21     9    34 1   
    22     9    35 1   
    23    10    19 2   
    24    10    24 1   
    25    11    24 2   
    26    11    25 1   
    27    11    36 1   
    28    12    13 ar  
    29    12    17 ar  
    30    12    47 1   
    31    13    14 ar  
    32    13    39 1   
    33    14    15 ar  
    34    14    40 1   
    35    15    16 ar  
    36    15    26 1   
    37    16    17 ar  
    38    16    41 1   
    39    17    42 1   
    40    18    19 1   
    41    18    25 1   
    42    18    46 2   
    43    19    20 1   
    44    20    23 1   
    45    20    43 1   
    46    20    44 1   
    47    21    45 1   
    48    25    47 1   
    49    37    47 1   
    50    38    47 1   
@<TRIPOS>SUBSTRUCTURE
     1 OY9         1 TEMP              0 ****  ****    0 ROOT
