@<TRIPOS>MOLECULE
OYA
   25    24     1     0     0
SMALL
bcc


@<TRIPOS>ATOM
      1 C14          5.0200    -0.2680    -0.1220 c3         1 OYA      -0.089100
      2 C5           3.7240     0.5310    -0.0970 c3         1 OYA      -0.074400
      3 C6           2.4870    -0.3570    -0.0300 c3         1 OYA      -0.075400
      4 C11          1.1820     0.4270     0.0040 c3         1 OYA      -0.075400
      5 C7          -0.0490    -0.4680     0.0720 c3         1 OYA      -0.075400
      6 C8          -1.3540     0.3170     0.1120 c3         1 OYA      -0.066400
      7 C9          -2.5770    -0.6000     0.1700 c3         1 OYA      -0.204400
      8 C10         -3.8450     0.1800     0.3040 c          1 OYA       0.574900
      9 OAB         -4.8200     0.0590    -0.3960 o          1 OYA      -0.514100
     10 H141         5.8950     0.3810    -0.1680 hc         1 OYA       0.032033
     11 H142         5.1160    -0.8880     0.7720 hc         1 OYA       0.032033
     12 H143         5.0560    -0.9330    -0.9880 hc         1 OYA       0.032033
     13 H51          3.7290     1.2100     0.7610 hc         1 OYA       0.037200
     14 H52          3.6660     1.1660    -0.9860 hc         1 OYA       0.037200
     15 H61          2.4820    -1.0360    -0.8900 hc         1 OYA       0.037700
     16 H62          2.5500    -0.9960     0.8580 hc         1 OYA       0.037700
     17 H111         1.1860     1.1050     0.8650 hc         1 OYA       0.038200
     18 H112         1.1180     1.0660    -0.8850 hc         1 OYA       0.038200
     19 H71         -0.0570    -1.1430    -0.7910 hc         1 OYA       0.040200
     20 H72          0.0150    -1.1090     0.9580 hc         1 OYA       0.040200
     21 H81         -1.3530     0.9820     0.9810 hc         1 OYA       0.042700
     22 H82         -1.4210     0.9610    -0.7710 hc         1 OYA       0.042700
     23 H91         -2.6270    -1.2550    -0.7010 hc         1 OYA       0.067200
     24 H92         -2.5000    -1.2360     1.0610 hc         1 OYA       0.067200
     25 H10         -3.8380     0.9150     1.1310 h4         1 OYA      -0.021800
@<TRIPOS>BOND
     1     1     2 1   
     2     1    10 1   
     3     1    11 1   
     4     1    12 1   
     5     2     3 1   
     6     2    13 1   
     7     2    14 1   
     8     3     4 1   
     9     3    15 1   
    10     3    16 1   
    11     4     5 1   
    12     4    17 1   
    13     4    18 1   
    14     5     6 1   
    15     5    19 1   
    16     5    20 1   
    17     6     7 1   
    18     6    21 1   
    19     6    22 1   
    20     7     8 1   
    21     7    23 1   
    22     7    24 1   
    23     8     9 2   
    24     8    25 1   
@<TRIPOS>SUBSTRUCTURE
     1 OYA         1 TEMP              0 ****  ****    0 ROOT
