@<TRIPOS>MOLECULE
OYA
   25    24     1     0     0
SMALL
No Charge or Current Charge


@<TRIPOS>ATOM
      1 C14          5.0820    -0.2550    -0.1550 c3         1 OYA      -0.089100
      2 C5           3.7590     0.5340    -0.1270 c3         1 OYA      -0.074400
      3 C6           2.5140    -0.3740    -0.0240 c3         1 OYA      -0.075400
      4 C11          1.1880     0.4170     0.0040 c3         1 OYA      -0.075400
      5 C7          -0.0560    -0.4920     0.1070 c3         1 OYA      -0.075400
      6 C8          -1.3820     0.3000     0.1350 c3         1 OYA      -0.066400
      7 C9          -2.6270    -0.6130     0.2370 c3         1 OYA      -0.204400
      8 C10         -3.9220     0.2030     0.2830 c          1 OYA       0.574900
      9 OAB         -4.4880     0.6190    -0.7220 o          1 OYA      -0.514100
     10 H141         5.9340     0.4300    -0.2290 hc         1 OYA       0.032033
     11 H142         5.1980    -0.8500     0.7590 hc         1 OYA       0.032033
     12 H143         5.1110    -0.9330    -1.0160 hc         1 OYA       0.032033
     13 H51          3.7750     1.2270     0.7230 hc         1 OYA       0.037200
     14 H52          3.6890     1.1450    -1.0360 hc         1 OYA       0.037200
     15 H61          2.5020    -1.0670    -0.8750 hc         1 OYA       0.037700
     16 H62          2.5880    -0.9850     0.8850 hc         1 OYA       0.037700
     17 H111         1.2000     1.1100     0.8550 hc         1 OYA       0.038200
     18 H112         1.1140     1.0280    -0.9050 hc         1 OYA       0.038200
     19 H71         -0.0680    -1.1840    -0.7440 hc         1 OYA       0.040200
     20 H72          0.0180    -1.1020     1.0160 hc         1 OYA       0.040200
     21 H81         -1.3700     0.9930     0.9860 hc         1 OYA       0.042700
     22 H82         -1.4550     0.9110    -0.7740 hc         1 OYA       0.042700
     23 H91         -2.6530    -1.2860    -0.6280 hc         1 OYA       0.067200
     24 H92         -2.5460    -1.1820     1.1710 hc         1 OYA       0.067200
     25 H10         -4.3200     0.4180     1.2990 h4         1 OYA      -0.021800
@<TRIPOS>BOND
     1     1     2 1   
     2     1    10 1   
     3     1    11 1   
     4     1    12 1   
     5     2     3 1   
     6     2    13 1   
     7     2    14 1   
     8     3     4 1   
     9     3    15 1   
    10     3    16 1   
    11     4     5 1   
    12     4    17 1   
    13     4    18 1   
    14     5     6 1   
    15     5    19 1   
    16     5    20 1   
    17     6     7 1   
    18     6    21 1   
    19     6    22 1   
    20     7     8 1   
    21     7    23 1   
    22     7    24 1   
    23     8     9 2   
    24     8    25 1   
@<TRIPOS>SUBSTRUCTURE
     1 OYA         1 TEMP              0 ****  ****    0 ROOT
