@<TRIPOS>MOLECULE
OYB
   46    49     1     0     0
SMALL
abcg2


@<TRIPOS>ATOM
      1 C1         -35.4930     4.6410   -31.0050 ca         1 OYB       0.411900
      2 C3         -34.6390     2.8680   -32.2010 ca         1 OYB       0.245900
      3 N6         -35.1390     4.1960   -29.8000 nb         1 OYB      -0.258000
      4 C9         -33.9530     2.5370   -27.4610 ca         1 OYB      -0.024200
      5 C10        -32.8410     2.1550   -26.7290 ca         1 OYB      -0.059000
      6 C11        -34.9510     3.4370   -25.4740 ca         1 OYB      -0.167500
      7 C12        -35.0150     3.1780   -26.8290 ca         1 OYB      -0.059000
      8 C14        -33.8370     3.0490   -24.7270 ca         1 OYB       0.147100
      9 C15        -32.7830     2.3980   -25.3640 ca         1 OYB      -0.167500
     10 C19        -32.7490     2.9980   -22.6200 c3         1 OYB       0.147900
     11 C20        -36.8480     8.0190   -30.3790 c6         1 OYB      -0.089400
     12 C21        -37.3890     8.8580   -29.2260 c6         1 OYB      -0.088400
     13 C22        -38.6580     8.2610   -28.6260 c6         1 OYB       0.152500
     14 C24        -37.8760     5.9700   -29.3570 c6         1 OYB      -0.089400
     15 N25        -39.1540     9.1260   -27.5640 n8         1 OYB      -0.988200
     16 N2         -35.2620     4.0170   -32.1980 nb         1 OYB      -0.259000
     17 C4         -34.2230     2.3020   -30.9920 ca         1 OYB      -0.155600
     18 C5         -34.5130     3.0350   -29.8470 ca         1 OYB       0.157500
     19 N7         -34.0030     2.2800   -28.8480 na         1 OYB       0.051100
     20 N8         -33.5670     1.1660   -30.6320 nc         1 OYB      -0.176400
     21 N13        -33.4450     1.1620   -29.3670 nd         1 OYB      -0.160400
     22 O16        -33.8660     3.3420   -23.4170 os         1 OYB      -0.339100
     23 N17        -36.1270     5.8150   -31.0920 nu         1 OYB      -0.906100
     24 C18        -36.6050     6.5750   -29.9540 c6         1 OYB       0.240500
     25 C23        -38.3960     6.8160   -28.2000 c6         1 OYB      -0.088400
     26 H1         -34.4660     2.3860   -33.1570 h4         1 OYB       0.042100
     27 H2         -32.0080     1.6650   -27.2150 ha         1 OYB       0.137000
     28 H3         -35.7760     3.9380   -24.9830 ha         1 OYB       0.127000
     29 H4         -35.8910     3.4780   -27.3870 ha         1 OYB       0.137000
     30 H5         -31.9030     2.0800   -24.8230 ha         1 OYB       0.127000
     31 H6         -32.9750     3.3320   -21.6110 h1         1 OYB       0.043033
     32 H7         -32.5760     1.9190   -22.6040 h1         1 OYB       0.043033
     33 H8         -31.8380     3.4970   -22.9600 h1         1 OYB       0.043033
     34 H9         -35.9200     8.4550   -30.7570 hc         1 OYB       0.049950
     35 H10        -37.5670     8.0330   -31.2070 hc         1 OYB       0.049950
     36 H11        -36.6260     8.9330   -28.4420 hc         1 OYB       0.047200
     37 H12        -37.5860     9.8750   -29.5710 hc         1 OYB       0.047200
     38 H13        -39.4250     8.2460   -29.4110 h1         1 OYB       0.060700
     39 H14        -38.6380     5.9060   -30.1420 hc         1 OYB       0.049950
     40 H15        -37.6780     4.9490   -29.0210 hc         1 OYB       0.049950
     41 H16        -39.9970     8.7250   -27.1700 hn         1 OYB       0.392500
     42 H17        -38.4820     9.1440   -26.8040 hn         1 OYB       0.392500
     43 H19        -36.4400     6.0830   -32.0120 hn         1 OYB       0.508000
     44 H20        -35.8210     6.5610   -29.1910 h1         1 OYB       0.081700
     45 H21        -39.3130     6.3730   -27.8000 hc         1 OYB       0.047200
     46 H22        -37.6650     6.8150   -27.3830 hc         1 OYB       0.047200
@<TRIPOS>BOND
     1     1     3 ar  
     2     1    16 ar  
     3     1    23 1   
     4     2    16 ar  
     5     2    17 ar  
     6     2    26 1   
     7     3    18 ar  
     8     4     5 ar  
     9     4     7 ar  
    10     4    19 1   
    11     5     9 ar  
    12     5    27 1   
    13     6     7 ar  
    14     6     8 ar  
    15     6    28 1   
    16     7    29 1   
    17     8     9 ar  
    18     8    22 1   
    19     9    30 1   
    20    10    22 1   
    21    10    31 1   
    22    10    32 1   
    23    10    33 1   
    24    11    12 1   
    25    11    24 1   
    26    11    34 1   
    27    11    35 1   
    28    12    13 1   
    29    12    36 1   
    30    12    37 1   
    31    13    15 1   
    32    13    25 1   
    33    13    38 1   
    34    14    24 1   
    35    14    25 1   
    36    14    39 1   
    37    14    40 1   
    38    15    41 1   
    39    15    42 1   
    40    17    18 ar  
    41    17    20 1   
    42    18    19 1   
    43    19    21 1   
    44    20    21 2   
    45    23    24 1   
    46    23    43 1   
    47    24    44 1   
    48    25    45 1   
    49    25    46 1   
@<TRIPOS>SUBSTRUCTURE
     1 OYB         1 TEMP              0 ****  ****    0 ROOT
