@<TRIPOS>MOLECULE
OYB
   46    49     1     0     0
SMALL
No Charge or Current Charge


@<TRIPOS>ATOM
      1 C1         -35.4860     4.5900   -31.0430 ca         1 OYB       0.411900
      2 C3         -34.6680     2.7970   -32.2270 ca         1 OYB       0.245900
      3 N6         -35.1050     4.1200   -29.8340 nb         1 OYB      -0.258000
      4 C9         -33.9570     2.3780   -27.5350 ca         1 OYB      -0.024200
      5 C10        -32.7510     2.3630   -26.8080 ca         1 OYB      -0.059000
      6 C11        -35.1590     2.9490   -25.4910 ca         1 OYB      -0.167500
      7 C12        -35.1630     2.6710   -26.8690 ca         1 OYB      -0.059000
      8 C14        -33.9580     2.9360   -24.7650 ca         1 OYB       0.147100
      9 C15        -32.7480     2.6410   -25.4290 ca         1 OYB      -0.167500
     10 C19        -32.8450     3.2300   -22.5810 c3         1 OYB       0.147900
     11 C20        -36.8080     8.0810   -30.3890 c6         1 OYB      -0.089400
     12 C21        -37.3200     8.9570   -29.2160 c6         1 OYB      -0.088400
     13 C22        -38.6030     8.3560   -28.5880 c6         1 OYB       0.152500
     14 C24        -37.8490     6.0200   -29.3070 c6         1 OYB      -0.089400
     15 N25        -39.0520     9.1800   -27.4520 n8         1 OYB      -0.988200
     16 N2         -35.2990     3.9940   -32.2390 nb         1 OYB      -0.259000
     17 C4         -34.2450     2.2370   -31.0110 ca         1 OYB      -0.155600
     18 C5         -34.4850     2.9260   -29.8570 ca         1 OYB       0.157500
     19 N7         -33.9550     2.1060   -28.9030 na         1 OYB       0.051100
     20 N8         -33.5870     1.0350   -30.7680 nc         1 OYB      -0.176400
     21 N13        -33.4080     0.9610   -29.4490 nd         1 OYB      -0.160400
     22 O16        -34.0180     3.2170   -23.4150 os         1 OYB      -0.339100
     23 N17        -36.1350     5.8160   -31.0910 nu         1 OYB      -0.906100
     24 C18        -36.5600     6.6200   -29.9330 c6         1 OYB       0.240500
     25 C23        -38.3640     6.8930   -28.1330 c6         1 OYB      -0.088400
     26 H1         -34.5080     2.3000   -33.1830 h4         1 OYB       0.042100
     27 H2         -31.8130     2.1380   -27.3140 ha         1 OYB       0.137000
     28 H3         -36.0930     3.1760   -24.9820 ha         1 OYB       0.127000
     29 H4         -36.1030     2.6830   -27.4170 ha         1 OYB       0.137000
     30 H5         -31.8010     2.6220   -24.8970 ha         1 OYB       0.127000
     31 H6         -33.1170     3.4750   -21.5470 h1         1 OYB       0.043033
     32 H7         -32.3560     2.2470   -22.5800 h1         1 OYB       0.043033
     33 H8         -32.1260     3.9820   -22.9310 h1         1 OYB       0.043033
     34 H9         -35.8790     8.5100   -30.7900 hc         1 OYB       0.049950
     35 H10        -37.5430     8.1010   -31.2060 hc         1 OYB       0.049950
     36 H11        -36.5320     9.0460   -28.4550 hc         1 OYB       0.047200
     37 H12        -37.5210     9.9750   -29.5790 hc         1 OYB       0.047200
     38 H13        -39.4050     8.3650   -29.3440 h1         1 OYB       0.060700
     39 H14        -38.6320     5.9370   -30.0730 hc         1 OYB       0.049950
     40 H15        -37.6560     5.0010   -28.9460 hc         1 OYB       0.049950
     41 H16        -39.8710     8.7340   -27.0230 hn         1 OYB       0.392500
     42 H17        -38.3420     9.1360   -26.7120 hn         1 OYB       0.392500
     43 H19        -36.4040     6.1250   -32.0260 hn         1 OYB       0.508000
     44 H20        -35.7670     6.6390   -29.1680 h1         1 OYB       0.081700
     45 H21        -39.2950     6.4630   -27.7390 hc         1 OYB       0.047200
     46 H22        -37.6330     6.8660   -27.3120 hc         1 OYB       0.047200
@<TRIPOS>BOND
     1     1     3 ar  
     2     1    16 ar  
     3     1    23 1   
     4     2    16 ar  
     5     2    17 ar  
     6     2    26 1   
     7     3    18 ar  
     8     4     5 ar  
     9     4     7 ar  
    10     4    19 1   
    11     5     9 ar  
    12     5    27 1   
    13     6     7 ar  
    14     6     8 ar  
    15     6    28 1   
    16     7    29 1   
    17     8     9 ar  
    18     8    22 1   
    19     9    30 1   
    20    10    22 1   
    21    10    31 1   
    22    10    32 1   
    23    10    33 1   
    24    11    12 1   
    25    11    24 1   
    26    11    34 1   
    27    11    35 1   
    28    12    13 1   
    29    12    36 1   
    30    12    37 1   
    31    13    15 1   
    32    13    25 1   
    33    13    38 1   
    34    14    24 1   
    35    14    25 1   
    36    14    39 1   
    37    14    40 1   
    38    15    41 1   
    39    15    42 1   
    40    17    18 ar  
    41    17    20 1   
    42    18    19 1   
    43    19    21 1   
    44    20    21 2   
    45    23    24 1   
    46    23    43 1   
    47    24    44 1   
    48    25    45 1   
    49    25    46 1   
@<TRIPOS>SUBSTRUCTURE
     1 OYB         1 TEMP              0 ****  ****    0 ROOT
