@<TRIPOS>MOLECULE
OYD
   39    39     1     0     0
SMALL
abcg2


@<TRIPOS>ATOM
      1 C4          46.8410    73.0260   226.2210 cc         1 OYD       0.393600
      2 C5          45.1510    71.9840   227.7350 c3         1 OYD       0.216800
      3 C6          43.8250    72.0080   226.9750 c3         1 OYD      -0.110400
      4 C8          41.2930    72.0730   227.1710 c3         1 OYD      -0.074400
      5 N1          46.3160    71.9800   226.8620 nu         1 OYD      -0.819200
      6 N3          47.8520    75.2500   225.0470 ns         1 OYD      -0.467500
      7 C2          49.0740    71.1470   224.1660 c2         1 OYD       0.416200
      8 O2          46.4480    76.5450   226.3010 o          1 OYD      -0.560000
      9 N           48.1890    71.5370   224.9980 nf         1 OYD      -0.595300
     10 C           48.5390    68.7220   224.7860 c3         1 OYD      -0.077100
     11 C1          49.3670    69.6930   223.9540 c3         1 OYD      -0.122700
     12 C10         46.8760    75.4450   225.9770 c          1 OYD       0.623000
     13 C11         48.3890    74.0190   224.6220 c          1 OYD       0.596200
     14 C3          47.8420    72.8590   225.2520 cd         1 OYD      -0.186600
     15 C7          42.6260    72.0670   227.9170 c3         1 OYD      -0.071400
     16 C9          40.0840    72.1710   228.0800 c3         1 OYD       0.162600
     17 N2          46.3950    74.2810   226.5380 ns         1 OYD      -0.541600
     18 O1          40.1000    73.4440   228.7410 oh         1 OYD      -0.671000
     19 O3          49.2680    74.0450   223.7540 o          1 OYD      -0.560000
     20 H1          45.2160    71.0830   228.3460 h1         1 OYD       0.057200
     21 H2          45.2130    72.8260   228.4300 h1         1 OYD       0.057200
     22 H3          43.8070    72.8730   226.3050 hc         1 OYD       0.051700
     23 H4          43.7660    71.1180   226.3430 hc         1 OYD       0.051700
     24 H5          41.2700    72.9060   226.4600 hc         1 OYD       0.050200
     25 H6          41.1990    71.1540   226.5820 hc         1 OYD       0.050200
     26 H7          46.6680    71.0940   226.5220 hn         1 OYD       0.540000
     27 H8          48.2290    76.0790   224.6060 hn         1 OYD       0.345500
     28 H9          49.6550    71.8500   223.5720 h4         1 OYD       0.004800
     29 H10         48.8210    67.6930   224.5590 hc         1 OYD       0.032367
     30 H11         48.6900    68.8900   225.8540 hc         1 OYD       0.032367
     31 H12         47.4730    68.8380   224.5820 hc         1 OYD       0.032367
     32 H13         49.2380    69.4830   222.8840 hc         1 OYD       0.050200
     33 H14         50.4370    69.5390   224.1390 hc         1 OYD       0.050200
     34 H16         42.6530    71.2090   228.5990 hc         1 OYD       0.047700
     35 H17         42.7000    72.9630   228.5390 hc         1 OYD       0.047700
     36 H18         39.1660    72.0670   227.4910 h1         1 OYD       0.022700
     37 H19         40.1040    71.3630   228.8210 h1         1 OYD       0.022700
     38 H20         39.3470    73.4830   229.3410 ho         1 OYD       0.442000
     39 H15         45.6750    74.4080   227.2340 hn         1 OYD       0.461000
@<TRIPOS>BOND
     1     1     5 1   
     2     1    14 2   
     3     1    17 1   
     4     2     3 1   
     5     2     5 1   
     6     2    20 1   
     7     2    21 1   
     8     3    15 1   
     9     3    22 1   
    10     3    23 1   
    11     4    15 1   
    12     4    16 1   
    13     4    24 1   
    14     4    25 1   
    15     5    26 1   
    16     6    12 1   
    17     6    13 1   
    18     6    27 1   
    19     7     9 2   
    20     7    11 1   
    21     7    28 1   
    22     8    12 2   
    23     9    14 1   
    24    10    11 1   
    25    10    29 1   
    26    10    30 1   
    27    10    31 1   
    28    11    32 1   
    29    11    33 1   
    30    12    17 1   
    31    13    14 1   
    32    13    19 2   
    33    15    34 1   
    34    15    35 1   
    35    16    18 1   
    36    16    36 1   
    37    16    37 1   
    38    17    39 1   
    39    18    38 1   
@<TRIPOS>SUBSTRUCTURE
     1 OYD         1 TEMP              0 ****  ****    0 ROOT
