@<TRIPOS>MOLECULE
OYD
   39    39     1     0     0
SMALL
No Charge or Current Charge


@<TRIPOS>ATOM
      1 C4          46.6680    73.0010   225.7160 cc         1 OYD       0.393600
      2 C5          44.9520    71.8440   227.2260 c3         1 OYD       0.216800
      3 C6          43.5270    72.1650   226.7320 c3         1 OYD      -0.110400
      4 C8          41.0370    72.4100   227.3600 c3         1 OYD      -0.074400
      5 N1          45.9120    71.9360   226.1140 nu         1 OYD      -0.819200
      6 N3          47.9700    75.2690   225.0730 ns         1 OYD      -0.467500
      7 C2          49.2390    71.0440   224.5390 c2         1 OYD       0.416200
      8 O2          46.5600    76.4510   226.3810 o          1 OYD      -0.560000
      9 N           48.0470    71.5730   224.3810 nf         1 OYD      -0.595300
     10 C           49.2580    68.5590   225.0980 c3         1 OYD      -0.077100
     11 C1          49.5300    69.6460   224.0370 c3         1 OYD      -0.122700
     12 C10         46.9240    75.3890   225.9170 c          1 OYD       0.623000
     13 C11         48.4560    74.1370   224.4950 c          1 OYD       0.596200
     14 C3          47.7390    72.8640   224.8470 cd         1 OYD      -0.186600
     15 C7          42.4680    72.0870   227.8550 c3         1 OYD      -0.071400
     16 C9          39.9510    72.2990   228.4520 c3         1 OYD       0.162600
     17 N2          46.3140    74.2200   226.2020 ns         1 OYD      -0.541600
     18 O1          40.1490    73.2990   229.4590 oh         1 OYD      -0.671000
     19 O3          49.4190    74.1880   223.7450 o          1 OYD      -0.560000
     20 H1          44.9660    70.8260   227.6410 h1         1 OYD       0.057200
     21 H2          45.2300    72.5290   228.0380 h1         1 OYD       0.057200
     22 H3          43.5100    73.1690   226.2910 hc         1 OYD       0.051700
     23 H4          43.2590    71.4610   225.9340 hc         1 OYD       0.051700
     24 H5          41.0150    73.4190   226.9310 hc         1 OYD       0.050200
     25 H6          40.7790    71.7180   226.5480 hc         1 OYD       0.050200
     26 H7          46.2410    71.0670   225.6860 hn         1 OYD       0.540000
     27 H8          48.4480    76.1240   224.8400 hn         1 OYD       0.345500
     28 H9          50.0360    71.5820   225.0460 h4         1 OYD       0.004800
     29 H10         49.4930    67.5660   224.6970 hc         1 OYD       0.032367
     30 H11         49.8740    68.7250   225.9900 hc         1 OYD       0.032367
     31 H12         48.2030    68.5670   225.3990 hc         1 OYD       0.032367
     32 H13         48.9330    69.4320   223.1430 hc         1 OYD       0.050200
     33 H14         50.5810    69.5850   223.7300 hc         1 OYD       0.050200
     34 H16         42.4780    71.0810   228.2920 hc         1 OYD       0.047700
     35 H17         42.7420    72.7860   228.6550 hc         1 OYD       0.047700
     36 H18         38.9650    72.4260   227.9850 h1         1 OYD       0.022700
     37 H19         39.9820    71.2950   228.8960 h1         1 OYD       0.022700
     38 H20         39.4290    73.1860   230.1190 ho         1 OYD       0.442000
     39 H15         45.5200    74.2900   226.8160 hn         1 OYD       0.461000
@<TRIPOS>BOND
     1     1     5 1   
     2     1    14 2   
     3     1    17 1   
     4     2     3 1   
     5     2     5 1   
     6     2    20 1   
     7     2    21 1   
     8     3    15 1   
     9     3    22 1   
    10     3    23 1   
    11     4    15 1   
    12     4    16 1   
    13     4    24 1   
    14     4    25 1   
    15     5    26 1   
    16     6    12 1   
    17     6    13 1   
    18     6    27 1   
    19     7     9 2   
    20     7    11 1   
    21     7    28 1   
    22     8    12 2   
    23     9    14 1   
    24    10    11 1   
    25    10    29 1   
    26    10    30 1   
    27    10    31 1   
    28    11    32 1   
    29    11    33 1   
    30    12    17 1   
    31    13    14 1   
    32    13    19 2   
    33    15    34 1   
    34    15    35 1   
    35    16    18 1   
    36    16    36 1   
    37    16    37 1   
    38    17    39 1   
    39    18    38 1   
@<TRIPOS>SUBSTRUCTURE
     1 OYD         1 TEMP              0 ****  ****    0 ROOT
