@<TRIPOS>MOLECULE
OYE
   89    95     1     0     0
SMALL
abcg2


@<TRIPOS>ATOM
      1 C1         125.8210   -49.9310    -7.1750 ca         1 OYE      -0.149300
      2 O1         125.7230   -48.5590   -10.7880 o          1 OYE      -0.896000
      3 C2         125.8600   -50.2440    -5.8200 ca         1 OYE      -0.071000
      4 O2         123.4940   -47.7750   -11.8760 o          1 OYE      -0.896000
      5 C3         125.0680   -51.2680    -5.3160 ca         1 OYE      -0.128000
      6 O3         123.9230   -51.3120   -11.1880 o          1 OYE      -0.844500
      7 O4         124.3970   -52.0230   -13.6600 o          1 OYE      -0.844500
      8 C4         129.9560   -50.9640   -10.8050 c5         1 OYE       0.282300
      9 C5         130.1730   -47.2490   -13.8140 c5         1 OYE       0.277300
     10 C6         131.6230   -50.1440    -6.7810 cc         1 OYE       0.916100
     11 C7         130.0670   -52.4930   -10.6390 c5         1 OYE       0.063300
     12 C8         133.2310   -47.5300   -10.8170 cc         1 OYE       0.687800
     13 C9         129.4880   -48.4310   -14.4990 c5         1 OYE       0.085300
     14 C10        128.7400   -52.9370   -11.2650 c5         1 OYE       0.158300
     15 C11        129.3640   -47.8810   -15.9180 c5         1 OYE       0.153300
     16 C12        129.9880   -50.1550    -8.4190 cc         1 OYE       0.205000
     17 C13        128.6170   -51.9620   -12.4270 c5         1 OYE       0.153300
     18 C14        131.1410   -47.3280   -11.5180 cd         1 OYE       0.096400
     19 C15        129.0700   -46.3970   -15.6570 c5         1 OYE       0.158300
     20 C16        129.1150   -49.5770    -7.5550 cd         1 OYE      -0.268600
     21 C17        127.2430   -51.7630   -13.0110 c3         1 OYE       0.229600
     22 C18        130.5860   -47.2420   -10.2540 cc         1 OYE       0.082500
     23 C19        127.6140   -46.0140   -15.8050 c3         1 OYE       0.233600
     24 C20        129.5410   -49.2190    -6.2130 c          1 OYE       0.796100
     25 C21        131.4540   -47.2720    -9.1260 c          1 OYE       0.505500
     26 C22        128.1160   -49.8360    -9.4920 cc         1 OYE       0.070700
     27 C23        128.9590   -47.1160   -11.6050 cd         1 OYE       0.493400
     28 C24        124.2370   -51.9890    -6.1620 ca         1 OYE      -0.119000
     29 C25        124.1940   -51.6770    -7.5150 ca         1 OYE      -0.128000
     30 C26        124.9800   -50.6510    -8.0190 ca         1 OYE      -0.071000
     31 C27        126.6880   -48.8410    -7.7480 c3         1 OYE       0.100900
     32 N1         130.8140   -49.6030    -5.9100 nd         1 OYE      -0.779100
     33 N2         132.7850   -47.4440    -9.5290 ns         1 OYE      -0.467400
     34 N3         132.8800   -50.4220    -6.4400 nv         1 OYE      -1.069200
     35 N5         131.2610   -50.4500    -8.0690 na         1 OYE      -0.922200
     36 N6         132.4290   -47.4670   -11.8520 nd         1 OYE      -0.671100
     37 N7         127.9480   -49.3880    -8.2640 na         1 OYE       0.078300
     38 N8         129.2220   -47.1060   -10.3340 nc         1 OYE      -0.638000
     39 N9         129.3580   -50.3340    -9.6140 na         1 OYE      -0.030000
     40 N10        130.0890   -47.2400   -12.3790 na         1 OYE      -0.164500
     41 O5         131.1160   -52.9900   -11.4120 oh         1 OYE      -0.675000
     42 O6         130.2230   -49.6150   -14.4590 oh         1 OYE      -0.735000
     43 O7         128.7030   -54.2460   -11.7360 oh         1 OYE      -0.676000
     44 O8         130.5850   -47.9710   -16.6120 oh         1 OYE      -0.747000
     45 O9         129.1380   -50.7280   -11.9000 os         1 OYE      -0.423000
     46 O10        129.5230   -46.1210   -14.3250 os         1 OYE      -0.444000
     47 O11        126.2930   -51.5370   -11.9990 os         1 OYE      -0.617400
     48 O12        126.7960   -46.9510   -15.1500 os         1 OYE      -0.611400
     49 O14        131.1770   -47.1730    -7.9420 o          1 OYE      -0.541000
     50 O15        125.3810   -45.0940   -14.0700 o          1 OYE      -0.838000
     51 O16        124.2700   -47.2390   -15.0580 o          1 OYE      -0.838000
     52 O17        125.7930   -47.3640   -12.9750 os         1 OYE      -0.741800
     53 O18        124.8620   -49.6680   -12.9450 os         1 OYE      -0.710800
     54 P1         125.4040   -46.5610   -14.3620 p5         1 OYE       1.478800
     55 P2         124.8780   -48.3170   -12.0080 p5         1 OYE       1.576800
     56 P3         124.7330   -51.2270   -12.4410 p5         1 OYE       1.461800
     57 H2         126.5090   -49.6880    -5.1570 ha         1 OYE       0.162500
     58 H3         125.1020   -51.5030    -4.2590 ha         1 OYE       0.118000
     59 H5         130.9330   -50.4900   -10.9480 h2         1 OYE       0.073700
     60 H6         131.2430   -47.2560   -14.0550 h2         1 OYE       0.072700
     61 H7         130.1520   -52.7870    -9.5850 h1         1 OYE       0.043700
     62 H8         128.4810   -48.5570   -14.0800 h1         1 OYE       0.128700
     63 H9         127.9420   -52.7430   -10.5380 h1         1 OYE       0.093700
     64 H10        128.5540   -48.3660   -16.4750 h1         1 OYE       0.095700
     65 H11        129.2650   -52.2940   -13.2480 h1         1 OYE       0.066700
     66 H12        129.6420   -45.7850   -16.3630 h1         1 OYE       0.046700
     67 H13        127.2870   -50.9330   -13.7270 h1         1 OYE       0.058700
     68 H14        127.0090   -52.6640   -13.5860 h1         1 OYE       0.058700
     69 H15        127.4650   -45.0010   -15.4210 h1         1 OYE       0.030700
     70 H16        127.3830   -45.9910   -16.8760 h1         1 OYE       0.030700
     71 H17        127.3650   -49.7710   -10.2700 h5         1 OYE       0.331000
     72 H18        127.9760   -47.0380   -12.0420 h5         1 OYE       0.152100
     73 H19        123.6210   -52.7870    -5.7680 ha         1 OYE       0.092000
     74 H20        123.5450   -52.2290    -8.1830 ha         1 OYE       0.118000
     75 H21        124.9290   -50.4060    -9.0730 ha         1 OYE       0.162500
     76 H22        126.9390   -48.0910    -7.0050 h1         1 OYE       0.135700
     77 H23        126.1970   -48.3570    -8.5890 h1         1 OYE       0.135700
     78 H24        133.4610   -47.4970    -8.7770 hn         1 OYE       0.301500
     79 H25        133.1620   -50.2690    -5.4870 hn         1 OYE       0.503000
     80 H26        133.4980   -50.9540    -7.0300 hn         1 OYE       0.503000
     81 H27        134.8980   -47.6470   -11.9430 hn         1 OYE       0.491500
     82 H28        135.2070   -47.5750   -10.2600 hn         1 OYE       0.491500
     83 H29        131.9380   -50.8120    -8.7270 hn         1 OYE       0.500000
     84 H30        131.9510   -52.7600   -10.9920 ho         1 OYE       0.483000
     85 H31        130.1070   -50.0030   -13.5840 ho         1 OYE       0.520000
     86 H32        128.5260   -54.8390   -10.9990 ho         1 OYE       0.502000
     87 H33        130.8360   -48.9000   -16.6620 ho         1 OYE       0.509000
     88 O13        128.8300   -48.6320    -5.4100 o          1 OYE      -0.533100
     89 N4         134.5440   -47.7160   -11.0040 nv         1 OYE      -1.068200
@<TRIPOS>BOND
     1     1     3 ar  
     2     1    30 ar  
     3     1    31 1   
     4     2    55 1   
     5     3     5 ar  
     6     3    57 1   
     7     4    55 1   
     8     5    28 ar  
     9     5    58 1   
    10     6    56 1   
    11     7    56 1   
    12     8    11 1   
    13     8    39 1   
    14     8    45 1   
    15     8    59 1   
    16     9    13 1   
    17     9    40 1   
    18     9    46 1   
    19     9    60 1   
    20    10    32 2   
    21    10    34 1   
    22    10    35 1   
    23    11    14 1   
    24    11    41 1   
    25    11    61 1   
    26    12    33 1   
    27    12    36 2   
    28    12    89 1   
    29    13    15 1   
    30    13    42 1   
    31    13    62 1   
    32    14    17 1   
    33    14    43 1   
    34    14    63 1   
    35    15    19 1   
    36    15    44 1   
    37    15    64 1   
    38    16    20 2   
    39    16    35 1   
    40    16    39 1   
    41    17    21 1   
    42    17    45 1   
    43    17    65 1   
    44    18    22 2   
    45    18    36 1   
    46    18    40 1   
    47    19    23 1   
    48    19    46 1   
    49    19    66 1   
    50    20    24 1   
    51    20    37 1   
    52    21    47 1   
    53    21    67 1   
    54    21    68 1   
    55    22    25 1   
    56    22    38 1   
    57    23    48 1   
    58    23    69 1   
    59    23    70 1   
    60    24    32 1   
    61    24    88 2   
    62    25    33 1   
    63    25    49 2   
    64    26    37 2   
    65    26    39 1   
    66    26    71 1   
    67    27    38 2   
    68    27    40 1   
    69    27    72 1   
    70    28    29 ar  
    71    28    73 1   
    72    29    30 ar  
    73    29    74 1   
    74    30    75 1   
    75    31    37 1   
    76    31    76 1   
    77    31    77 1   
    78    33    78 1   
    79    34    79 1   
    80    34    80 1   
    81    35    83 1   
    82    41    84 1   
    83    42    85 1   
    84    43    86 1   
    85    44    87 1   
    86    47    56 1   
    87    48    54 1   
    88    50    54 1   
    89    51    54 1   
    90    52    54 1   
    91    52    55 1   
    92    53    55 1   
    93    53    56 1   
    94    81    89 1   
    95    82    89 1   
@<TRIPOS>SUBSTRUCTURE
     1 OYE         1 TEMP              0 ****  ****    0 ROOT
