@<TRIPOS>MOLECULE
OYE
   89    95     1     0     0
SMALL
No Charge or Current Charge


@<TRIPOS>ATOM
      1 C1         126.0690   -49.5670    -7.3750 ca         1 OYE      -0.149300
      2 O1         126.3540   -48.3500   -11.8780 o          1 OYE      -0.896000
      3 C2         125.5780   -49.0550    -6.1560 ca         1 OYE      -0.071000
      4 O2         123.9260   -48.2240   -12.4760 o          1 OYE      -0.896000
      5 C3         124.7000   -49.8190    -5.3670 ca         1 OYE      -0.128000
      6 O3         124.6370   -50.8770   -11.1400 o          1 OYE      -0.844500
      7 O4         124.7710   -52.4490   -13.0090 o          1 OYE      -0.844500
      8 C4         130.4690   -51.1900   -10.9720 c5         1 OYE       0.282300
      9 C5         129.5250   -47.0170   -13.4830 c5         1 OYE       0.277300
     10 C6         131.5860   -50.6480    -6.7150 cc         1 OYE       0.916100
     11 C7         130.6030   -52.7500   -10.8650 c5         1 OYE       0.063300
     12 C8         132.5540   -48.1240   -10.4530 cc         1 OYE       0.687800
     13 C9         129.0320   -48.3090   -14.2120 c5         1 OYE       0.085300
     14 C10        129.2230   -53.1610   -11.4440 c5         1 OYE       0.158300
     15 C11        128.6160   -47.7510   -15.6200 c5         1 OYE       0.153300
     16 C12        130.1650   -50.4440    -8.5440 cc         1 OYE       0.205000
     17 C13        129.1450   -52.1920   -12.6640 c5         1 OYE       0.153300
     18 C14        130.5650   -47.3580   -11.1910 cd         1 OYE       0.096400
     19 C15        128.4830   -46.2060   -15.3620 c5         1 OYE       0.158300
     20 C16        129.2860   -49.7860    -7.7710 cd         1 OYE      -0.268600
     21 C17        127.7140   -51.9610   -13.2140 c3         1 OYE       0.229600
     22 C18        130.2020   -46.9820    -9.9250 cc         1 OYE       0.082500
     23 C19        127.2440   -45.4560   -15.9410 c3         1 OYE       0.233600
     24 C20        129.5550   -49.5330    -6.3690 c          1 OYE       0.796100
     25 C21        131.1280   -47.1820    -8.7830 c          1 OYE       0.505500
     26 C22        128.5190   -49.9150    -9.9040 cc         1 OYE       0.070700
     27 C23        128.5440   -46.4590   -11.2030 cd         1 OYE       0.493400
     28 C24        124.3040   -51.0980    -5.7900 ca         1 OYE      -0.119000
     29 C25        124.7840   -51.6120    -7.0050 ca         1 OYE      -0.128000
     30 C26        125.6620   -50.8510    -7.7970 ca         1 OYE      -0.071000
     31 C27        127.0290   -48.7340    -8.2260 c3         1 OYE       0.100900
     32 N1         130.7670   -50.0420    -5.9310 nd         1 OYE      -0.779100
     33 N2         132.2870   -47.7750    -9.1750 ns         1 OYE      -0.467400
     34 N3         132.7080   -51.0930    -6.2560 nv         1 OYE      -1.069200
     35 N5         131.3800   -50.8570    -8.0310 na         1 OYE      -0.922200
     36 N6         131.7880   -47.9510   -11.5050 nd         1 OYE      -0.671100
     37 N7         128.2480   -49.4630    -8.6230 na         1 OYE       0.078300
     38 N8         128.9420   -46.4320    -9.9250 nc         1 OYE      -0.638000
     39 N9         129.7620   -50.5420    -9.8620 na         1 OYE      -0.030000
     40 N10        129.5300   -47.0060   -12.0240 na         1 OYE      -0.164500
     41 O5         131.6760   -53.3030   -11.6600 oh         1 OYE      -0.675000
     42 O6         130.0440   -49.3380   -14.3520 oh         1 OYE      -0.735000
     43 O7         129.2440   -54.5430   -11.8110 oh         1 OYE      -0.676000
     44 O8         129.6770   -48.0660   -16.5270 oh         1 OYE      -0.747000
     45 O9         129.7460   -50.9460   -12.2070 os         1 OYE      -0.423000
     46 O10        128.6060   -46.0220   -13.9430 os         1 OYE      -0.444000
     47 O11        126.9160   -51.3490   -12.1900 os         1 OYE      -0.617400
     48 O12        126.0120   -46.2000   -15.8660 os         1 OYE      -0.611400
     49 O14        130.9190   -46.8690    -7.6200 o          1 OYE      -0.541000
     50 O15        125.5690   -45.5170   -13.4390 o          1 OYE      -0.838000
     51 O16        123.7490   -46.4710   -14.8430 o          1 OYE      -0.838000
     52 O17        125.7580   -47.9480   -14.2720 os         1 OYE      -0.741800
     53 O18        125.3470   -50.0520   -13.4900 os         1 OYE      -0.710800
     54 P1         125.2020   -46.4990   -14.5000 p5         1 OYE       1.478800
     55 P2         125.3060   -48.5930   -12.9100 p5         1 OYE       1.576800
     56 P3         125.3320   -51.1990   -12.4170 p5         1 OYE       1.461800
     57 H2         125.8800   -48.0660    -5.8120 ha         1 OYE       0.162500
     58 H3         124.3290   -49.4190    -4.4260 ha         1 OYE       0.118000
     59 H5         131.4540   -50.7120   -11.0110 h2         1 OYE       0.073700
     60 H6         130.5420   -46.7580   -13.8050 h2         1 OYE       0.072700
     61 H7         130.7030   -53.0720    -9.8190 h1         1 OYE       0.043700
     62 H8         128.1470   -48.7020   -13.6950 h1         1 OYE       0.128700
     63 H9         128.4130   -52.9560   -10.7290 h1         1 OYE       0.093700
     64 H10        127.6680   -48.1970   -15.9540 h1         1 OYE       0.095700
     65 H11        129.7630   -52.5750   -13.4870 h1         1 OYE       0.066700
     66 H12        129.3570   -45.7070   -15.8030 h1         1 OYE       0.046700
     67 H13        127.7700   -51.3170   -14.1010 h1         1 OYE       0.058700
     68 H14        127.2960   -52.9290   -13.5220 h1         1 OYE       0.058700
     69 H15        127.1440   -44.4890   -15.4310 h1         1 OYE       0.030700
     70 H16        127.4580   -45.2350   -16.9940 h1         1 OYE       0.030700
     71 H17        127.9020   -49.7640   -10.7800 h5         1 OYE       0.331000
     72 H18        127.6050   -46.0870   -11.6000 h5         1 OYE       0.152100
     73 H19        123.6260   -51.6890    -5.1790 ha         1 OYE       0.092000
     74 H20        124.4750   -52.6010    -7.3370 ha         1 OYE       0.118000
     75 H21        126.0170   -51.2610    -8.7410 ha         1 OYE       0.162500
     76 H22        127.3350   -47.8310    -7.6840 h1         1 OYE       0.135700
     77 H23        126.5070   -48.3990    -9.1320 h1         1 OYE       0.135700
     78 H24        132.9590   -47.9840    -8.4550 hn         1 OYE       0.301500
     79 H25        132.7310   -51.0370    -5.2490 hn         1 OYE       0.503000
     80 H26        132.9770   -51.9930    -6.6230 hn         1 OYE       0.503000
     81 H27        133.9720   -48.7640   -11.6340 hn         1 OYE       0.491500
     82 H28        134.4740   -48.4570   -10.0300 hn         1 OYE       0.491500
     83 H29        132.1170   -51.2670    -8.5830 hn         1 OYE       0.500000
     84 H30        132.5320   -53.0510   -11.2400 ho         1 OYE       0.483000
     85 H31        130.0720   -49.8390   -13.4910 ho         1 OYE       0.520000
     86 H32        130.2030   -54.7180   -11.9820 ho         1 OYE       0.502000
     87 H33        130.1870   -48.7240   -15.9780 ho         1 OYE       0.509000
     88 O13        128.8130   -48.9390    -5.6050 o          1 OYE      -0.533100
     89 N4         133.7190   -48.7070   -10.6550 nv         1 OYE      -1.068200
@<TRIPOS>BOND
     1     1     3 ar  
     2     1    30 ar  
     3     1    31 1   
     4     2    55 1   
     5     3     5 ar  
     6     3    57 1   
     7     4    55 1   
     8     5    28 ar  
     9     5    58 1   
    10     6    56 1   
    11     7    56 1   
    12     8    11 1   
    13     8    39 1   
    14     8    45 1   
    15     8    59 1   
    16     9    13 1   
    17     9    40 1   
    18     9    46 1   
    19     9    60 1   
    20    10    32 2   
    21    10    34 1   
    22    10    35 1   
    23    11    14 1   
    24    11    41 1   
    25    11    61 1   
    26    12    33 1   
    27    12    36 2   
    28    12    89 1   
    29    13    15 1   
    30    13    42 1   
    31    13    62 1   
    32    14    17 1   
    33    14    43 1   
    34    14    63 1   
    35    15    19 1   
    36    15    44 1   
    37    15    64 1   
    38    16    20 2   
    39    16    35 1   
    40    16    39 1   
    41    17    21 1   
    42    17    45 1   
    43    17    65 1   
    44    18    22 2   
    45    18    36 1   
    46    18    40 1   
    47    19    23 1   
    48    19    46 1   
    49    19    66 1   
    50    20    24 1   
    51    20    37 1   
    52    21    47 1   
    53    21    67 1   
    54    21    68 1   
    55    22    25 1   
    56    22    38 1   
    57    23    48 1   
    58    23    69 1   
    59    23    70 1   
    60    24    32 1   
    61    24    88 2   
    62    25    33 1   
    63    25    49 2   
    64    26    37 2   
    65    26    39 1   
    66    26    71 1   
    67    27    38 2   
    68    27    40 1   
    69    27    72 1   
    70    28    29 ar  
    71    28    73 1   
    72    29    30 ar  
    73    29    74 1   
    74    30    75 1   
    75    31    37 1   
    76    31    76 1   
    77    31    77 1   
    78    33    78 1   
    79    34    79 1   
    80    34    80 1   
    81    35    83 1   
    82    41    84 1   
    83    42    85 1   
    84    43    86 1   
    85    44    87 1   
    86    47    56 1   
    87    48    54 1   
    88    50    54 1   
    89    51    54 1   
    90    52    54 1   
    91    52    55 1   
    92    53    55 1   
    93    53    56 1   
    94    81    89 1   
    95    82    89 1   
@<TRIPOS>SUBSTRUCTURE
     1 OYE         1 TEMP              0 ****  ****    0 ROOT
