@<TRIPOS>MOLECULE
OYF
   38    41     1     0     0
SMALL
abcg2


@<TRIPOS>ATOM
      1 N1           3.3270     0.2430    19.9170 nb         1 OYF      -0.662000
      2 C4          10.6470     1.4010    24.1870 c6         1 OYF       0.158600
      3 C5           9.6940     0.2480    23.9490 c6         1 OYF      -0.105400
      4 C6          10.0380    -0.4730    22.6320 c6         1 OYF      -0.082400
      5 C7           9.5210     0.3370    21.4420 c          1 OYF       0.600100
      6 C8           7.5620     0.4740    19.9310 ca         1 OYF      -0.078000
      7 C10          5.4100    -0.2520    21.0290 ca         1 OYF      -0.161000
      8 C13          5.4060     0.9380    18.9280 ca         1 OYF      -0.147000
      9 C15          8.1260     1.1360    18.8610 ca         1 OYF       0.332900
     10 C17         14.2910    -1.1290    22.3540 ca         1 OYF      -0.060000
     11 O1          10.1050     1.3210    21.0110 o          1 OYF      -0.561100
     12 O           12.0140     0.9540    24.2560 os         1 OYF      -0.344100
     13 C16         13.7900    -0.1980    23.2480 ca         1 OYF      -0.134000
     14 C3          12.4150     0.0330    23.3380 ca         1 OYF       0.164100
     15 C2          11.5280    -0.6880    22.5320 ca         1 OYF      -0.149300
     16 C1          12.0410    -1.6250    21.6360 ca         1 OYF      -0.059000
     17 C           13.4050    -1.8370    21.5490 ca         1 OYF       0.089000
     18 CL          14.0260    -3.0170    20.4090 cl         1 OYF      -0.210000
     19 N            8.3320    -0.1130    20.9460 ns         1 OYF      -0.152000
     20 C14          6.0980     1.5960    17.8880 ca         1 OYF       0.359900
     21 N2           7.4070     1.6970    17.8570 nb         1 OYF      -0.642000
     22 C12          3.9950     0.8330    18.9530 ca         1 OYF       0.381900
     23 C11          4.0420    -0.2870    20.9450 ca         1 OYF       0.342900
     24 C9           6.1440     0.3660    19.9930 ca         1 OYF      -0.008000
     25 H2          10.4560     1.8830    25.1430 h1         1 OYF       0.071700
     26 H3           8.6680     0.6190    23.9310 hc         1 OYF       0.063200
     27 H4           9.7740    -0.4670    24.7690 hc         1 OYF       0.063200
     28 H5           9.5430    -1.4450    22.6290 hc         1 OYF       0.065700
     29 H6           5.8990    -0.6860    21.8890 ha         1 OYF       0.117000
     30 H7           9.1980     1.2280    18.7890 h4         1 OYF       0.050100
     31 H8          15.3560    -1.3020    22.2810 ha         1 OYF       0.134000
     32 H9          14.4580     0.3660    23.8850 ha         1 OYF       0.135000
     33 H10         11.3610    -2.1880    21.0090 ha         1 OYF       0.125000
     34 H11          7.9360    -0.9200    21.4030 hn         1 OYF       0.154000
     35 H12          5.5370     2.0420    17.0730 h4         1 OYF       0.027100
     36 H13          3.4240     1.2620    18.1350 h4         1 OYF       0.026100
     37 H14          3.4610    -0.7540    21.7310 h4         1 OYF       0.023100
     38 H1          10.5670     2.1440    23.3900 h1         1 OYF       0.071700
@<TRIPOS>BOND
     1     1    22 ar  
     2     1    23 ar  
     3     2     3 1   
     4     2    12 1   
     5     2    25 1   
     6     2    38 1   
     7     3     4 1   
     8     3    26 1   
     9     3    27 1   
    10     4     5 1   
    11     4    15 1   
    12     4    28 1   
    13     5    11 2   
    14     5    19 1   
    15     6     9 ar  
    16     6    19 1   
    17     6    24 ar  
    18     7    23 ar  
    19     7    24 ar  
    20     7    29 1   
    21     8    20 ar  
    22     8    22 ar  
    23     8    24 ar  
    24     9    21 ar  
    25     9    30 1   
    26    10    13 ar  
    27    10    17 ar  
    28    10    31 1   
    29    12    14 1   
    30    13    14 ar  
    31    13    32 1   
    32    14    15 ar  
    33    15    16 ar  
    34    16    17 ar  
    35    16    33 1   
    36    17    18 1   
    37    19    34 1   
    38    20    21 ar  
    39    20    35 1   
    40    22    36 1   
    41    23    37 1   
@<TRIPOS>SUBSTRUCTURE
     1 OYF         1 TEMP              0 ****  ****    0 ROOT
