@<TRIPOS>MOLECULE
OYF
   38    41     1     0     0
SMALL
No Charge or Current Charge


@<TRIPOS>ATOM
      1 N1           3.4800    -0.5940    19.4620 nb         1 OYF      -0.662000
      2 C4          11.0330     1.6870    24.1170 c6         1 OYF       0.158600
      3 C5           9.8710     0.6790    24.0000 c6         1 OYF      -0.105400
      4 C6          10.0650    -0.1920    22.7320 c6         1 OYF      -0.082400
      5 C7           9.5810     0.5410    21.4530 c          1 OYF       0.600100
      6 C8           7.4180     0.8630    20.1000 ca         1 OYF      -0.078000
      7 C10          5.5470    -0.6530    20.7340 ca         1 OYF      -0.161000
      8 C13          5.3220     0.8660    18.8790 ca         1 OYF      -0.147000
      9 C15          7.8510     1.8790    19.2090 ca         1 OYF       0.332900
     10 C17         14.1680    -1.6170    22.3870 ca         1 OYF      -0.060000
     11 O1          10.3530     1.1680    20.7370 o          1 OYF      -0.561100
     12 O           12.3010     0.9980    24.1900 os         1 OYF      -0.344100
     13 C16         13.8710    -0.5330    23.2310 ca         1 OYF      -0.134000
     14 C3          12.5530    -0.0580    23.3360 ca         1 OYF       0.164100
     15 C2          11.5140    -0.6840    22.6060 ca         1 OYF      -0.149300
     16 C1          11.8180    -1.7730    21.7630 ca         1 OYF      -0.059000
     17 C           13.1400    -2.2340    21.6530 ca         1 OYF       0.089000
     18 Cl          13.5100    -3.5920    20.5980 cl         1 OYF      -0.210000
     19 N            8.2340     0.3640    21.1590 ns         1 OYF      -0.152000
     20 C14          5.8420     1.8660    18.0460 ca         1 OYF       0.359900
     21 N2           7.0850     2.3710    18.2040 nb         1 OYF      -0.642000
     22 C12          4.0230     0.3710    18.6830 ca         1 OYF       0.381900
     23 C11          4.2370    -1.0910    20.4680 ca         1 OYF       0.342900
     24 C9           6.1110     0.3530    19.9230 ca         1 OYF      -0.008000
     25 H2          10.9130     2.3100    25.0150 h1         1 OYF       0.071700
     26 H3           8.9060     1.2040    23.9760 hc         1 OYF       0.063200
     27 H4           9.8600     0.0410    24.8940 hc         1 OYF       0.063200
     28 H5           9.3820    -1.0410    22.8790 hc         1 OYF       0.065700
     29 H6           6.0920    -1.1020    21.5580 ha         1 OYF       0.117000
     30 H7           8.8330     2.3370    19.2970 h4         1 OYF       0.050100
     31 H8          15.1890    -1.9810    22.3020 ha         1 OYF       0.134000
     32 H9          14.6630    -0.0560    23.8030 ha         1 OYF       0.135000
     33 H10         11.0310    -2.2630    21.1950 ha         1 OYF       0.125000
     34 H11          7.7380    -0.2150    21.8240 hn         1 OYF       0.154000
     35 H12          5.2500     2.2800    17.2300 h4         1 OYF       0.027100
     36 H13          3.3940     0.7550    17.8800 h4         1 OYF       0.026100
     37 H14          3.7790    -1.8670    21.0800 h4         1 OYF       0.023100
     38 H1          11.0420     2.3540    23.2430 h1         1 OYF       0.071700
@<TRIPOS>BOND
     1     1    22 ar  
     2     1    23 ar  
     3     2     3 1   
     4     2    12 1   
     5     2    25 1   
     6     2    38 1   
     7     3     4 1   
     8     3    26 1   
     9     3    27 1   
    10     4     5 1   
    11     4    15 1   
    12     4    28 1   
    13     5    11 2   
    14     5    19 1   
    15     6     9 ar  
    16     6    19 1   
    17     6    24 ar  
    18     7    23 ar  
    19     7    24 ar  
    20     7    29 1   
    21     8    20 ar  
    22     8    22 ar  
    23     8    24 ar  
    24     9    21 ar  
    25     9    30 1   
    26    10    13 ar  
    27    10    17 ar  
    28    10    31 1   
    29    12    14 1   
    30    13    14 ar  
    31    13    32 1   
    32    14    15 ar  
    33    15    16 ar  
    34    16    17 ar  
    35    16    33 1   
    36    17    18 1   
    37    19    34 1   
    38    20    21 ar  
    39    20    35 1   
    40    22    36 1   
    41    23    37 1   
@<TRIPOS>SUBSTRUCTURE
     1 OYF         1 TEMP              0 ****  ****    0 ROOT
