@<TRIPOS>MOLECULE
OYG
   24    24     1     0     0
SMALL
abcg2


@<TRIPOS>ATOM
      1 N           -2.5510     0.9900    -0.0100 ns         1 OYG      -0.512600
      2 C            4.5810    -0.9570    -0.0290 c3         1 OYG      -0.195100
      3 C1           3.5160     0.1060    -0.0200 c          1 OYG       0.570300
      4 C2           2.1310    -0.3970    -0.0190 ce         1 OYG      -0.307200
      5 C3           1.0930     0.4570    -0.0110 cf         1 OYG      -0.082000
      6 C4          -0.3250     0.1810    -0.0100 cd         1 OYG      -0.259200
      7 C5          -1.2190     1.2250    -0.0100 cc         1 OYG       0.138400
      8 C6          -0.8250     2.6650    -0.0120 c3         1 OYG      -0.081900
      9 C7          -3.1360    -0.2550    -0.0070 c          1 OYG       0.618000
     10 C8          -0.8490    -1.1770    -0.0080 c          1 OYG       0.599200
     11 N1          -2.2320    -1.2760    -0.0050 ns         1 OYG      -0.467500
     12 O1          -4.3360    -0.4130    -0.0060 o          1 OYG      -0.543000
     13 O2          -0.1850    -2.1960    -0.0100 o          1 OYG      -0.526000
     14 H1          -3.1880     1.7740    -0.0140 hn         1 OYG       0.461000
     15 H2           5.5790    -0.5260    -0.0230 hc         1 OYG       0.060700
     16 H3           4.4660    -1.6090     0.8400 hc         1 OYG       0.060700
     17 H4           4.4690    -1.5920    -0.9100 hc         1 OYG       0.060700
     18 H7           1.9980    -1.4680    -0.0260 ha         1 OYG       0.211000
     19 H8           1.3520     1.5110    -0.0040 ha         1 OYG       0.181000
     20 H9          -1.6950     3.3170    -0.0200 hc         1 OYG       0.069700
     21 H10         -0.2350     2.9040     0.8720 hc         1 OYG       0.069700
     22 H11         -0.2210     2.9000    -0.8880 hc         1 OYG       0.069700
     23 H12         -2.6160    -2.2130    -0.0020 hn         1 OYG       0.347500
     24 O3           3.7920     1.2920    -0.0150 o          1 OYG      -0.543100
@<TRIPOS>BOND
     1     1     7 1   
     2     1     9 1   
     3     1    14 1   
     4     2     3 1   
     5     2    15 1   
     6     2    16 1   
     7     2    17 1   
     8     3     4 1   
     9     3    24 2   
    10     4     5 2   
    11     4    18 1   
    12     5     6 1   
    13     5    19 1   
    14     6     7 2   
    15     6    10 1   
    16     7     8 1   
    17     8    20 1   
    18     8    21 1   
    19     8    22 1   
    20     9    11 1   
    21     9    12 2   
    22    10    11 1   
    23    10    13 2   
    24    11    23 1   
@<TRIPOS>SUBSTRUCTURE
     1 OYG         1 TEMP              0 ****  ****    0 ROOT
