@<TRIPOS>MOLECULE
OYG
   24    24     1     0     0
SMALL
No Charge or Current Charge


@<TRIPOS>ATOM
      1 N           -2.5410     0.9390    -0.2140 ns         1 OYG      -0.512600
      2 C            4.5860    -0.9520    -0.4020 c3         1 OYG      -0.195100
      3 C1           3.5860     0.0240     0.2100 c          1 OYG       0.570300
      4 C2           2.1420    -0.2840     0.0090 ce         1 OYG      -0.307200
      5 C3           1.1060     0.4680     0.4790 cf         1 OYG      -0.082000
      6 C4          -0.3300     0.2260     0.2700 cd         1 OYG      -0.259200
      7 C5          -1.2050     1.2420    -0.0550 cc         1 OYG       0.138400
      8 C6          -0.8560     2.6930    -0.2650 c3         1 OYG      -0.081900
      9 C7          -3.0950    -0.2950    -0.0820 c          1 OYG       0.618000
     10 C8          -0.8690    -1.1550     0.4450 c          1 OYG       0.599200
     11 N1          -2.2110    -1.2670     0.2410 ns         1 OYG      -0.467500
     12 O1          -4.2810    -0.5030    -0.2390 o          1 OYG      -0.543000
     13 O2          -0.2020    -2.1300     0.7520 o          1 OYG      -0.526000
     14 H1          -3.2030     1.6690    -0.4510 hn         1 OYG       0.461000
     15 H2           5.6270    -0.6660    -0.2160 hc         1 OYG       0.060700
     16 H3           4.3690    -1.9600    -0.0320 hc         1 OYG       0.060700
     17 H4           4.3770    -1.0490    -1.4730 hc         1 OYG       0.060700
     18 H7           1.9310    -1.1860    -0.5630 ha         1 OYG       0.211000
     19 H8           1.3490     1.3910     1.0140 ha         1 OYG       0.181000
     20 H9          -1.6210     3.2220    -0.8460 hc         1 OYG       0.069700
     21 H10         -0.7470     3.2070     0.6970 hc         1 OYG       0.069700
     22 H11          0.0900     2.7920    -0.8090 hc         1 OYG       0.069700
     23 H12         -2.5960    -2.1910     0.3510 hn         1 OYG       0.347500
     24 O3           3.9580     1.0090     0.8330 o          1 OYG      -0.543100
@<TRIPOS>BOND
     1     1     7 1   
     2     1     9 1   
     3     1    14 1   
     4     2     3 1   
     5     2    15 1   
     6     2    16 1   
     7     2    17 1   
     8     3     4 1   
     9     3    24 2   
    10     4     5 2   
    11     4    18 1   
    12     5     6 1   
    13     5    19 1   
    14     6     7 2   
    15     6    10 1   
    16     7     8 1   
    17     8    20 1   
    18     8    21 1   
    19     8    22 1   
    20     9    11 1   
    21     9    12 2   
    22    10    11 1   
    23    10    13 2   
    24    11    23 1   
@<TRIPOS>SUBSTRUCTURE
     1 OYG         1 TEMP              0 ****  ****    0 ROOT
