@<TRIPOS>MOLECULE
OYH
   51    55     1     0     0
SMALL
No Charge or Current Charge


@<TRIPOS>ATOM
      1 C10          4.9570   -17.5490   -30.3110 cc         1 OYH       0.087400
      2 C13          3.8140   -16.0420   -27.0290 ca         1 OYH      -0.123000
      3 C15          5.7520   -14.8020   -27.8080 ca         1 OYH      -0.123000
      4 C20          4.6860   -20.8120   -33.3710 cc         1 OYH      -0.045000
      5 C21          4.5360   -22.1890   -33.9070 ca         1 OYH      -0.008000
      6 C22          5.0830   -22.5210   -35.1710 ca         1 OYH      -0.102000
      7 C24          4.2700   -24.8080   -34.9890 ca         1 OYH      -0.124000
      8 C26          3.8420   -23.2080   -33.2040 ca         1 OYH      -0.102000
      9 C28          5.2010   -18.3710   -33.7030 cd         1 OYH      -0.053000
     10 C04          8.1730   -14.2070   -34.9160 ca         1 OYH      -0.106600
     11 C05          8.3640   -15.5160   -34.4230 ca         1 OYH      -0.092000
     12 C06          7.4800   -16.0580   -33.4750 ca         1 OYH      -0.211000
     13 C07          6.3880   -15.3070   -33.0150 ca         1 OYH       0.206000
     14 C09          5.2720   -17.1040   -31.5860 cd         1 OYH       0.107900
     15 C11          4.8690   -16.6470   -29.1540 ca         1 OYH      -0.008800
     16 C12          3.8830   -16.8650   -28.1670 ca         1 OYH      -0.089000
     17 C14          4.7440   -15.0070   -26.8520 ca         1 OYH      -0.124000
     18 C16          5.8210   -15.6240   -28.9470 ca         1 OYH      -0.089000
     19 C18          4.8090   -19.3200   -31.5010 cd         1 OYH      -0.094000
     20 C19          4.5860   -20.6390   -31.9960 cd         1 OYH      -0.072000
     21 C23          4.9540   -23.8160   -35.7030 ca         1 OYH      -0.116500
     22 C25          3.7120   -24.5010   -33.7400 ca         1 OYH      -0.116500
     23 C27          5.0040   -19.6570   -34.1960 cc         1 OYH      -0.179000
     24 C30          6.2060   -13.9970   -33.4810 ca         1 OYH      -0.167000
     25 C31          7.0890   -13.4320   -34.4300 ca         1 OYH      -0.048600
     26 C32          6.8780   -12.0010   -34.8850 c          1 OYH       0.737600
     27 N08          5.5050   -15.8190   -32.0630 nu         1 OYH      -0.853000
     28 N17          4.6790   -18.9000   -30.2530 nc         1 OYH      -0.302600
     29 N29          5.1950   -18.2810   -32.3100 na         1 OYH       0.117100
     30 O01         10.3180   -13.7420   -35.7570 o          1 OYH      -0.731500
     31 O03          8.6400   -13.2850   -37.0270 o          1 OYH      -0.731500
     32 O33          7.7800   -11.1950   -34.7000 o          1 OYH      -0.735000
     33 O34          5.7720   -11.6840   -35.3050 o          1 OYH      -0.735000
     34 H1           3.0400   -16.2120   -26.2830 ha         1 OYH       0.107500
     35 H2           6.4860   -14.0130   -27.6640 ha         1 OYH       0.107500
     36 H3           5.6420   -21.7900   -35.7460 ha         1 OYH       0.119000
     37 H4           4.1690   -25.8090   -35.4020 ha         1 OYH       0.100000
     38 H5           3.3600   -23.0110   -32.2520 ha         1 OYH       0.119000
     39 H6           5.3840   -17.4810   -34.2910 h4         1 OYH       0.178000
     40 H7           9.1980   -16.1140   -34.7830 ha         1 OYH       0.105000
     41 H8           7.6570   -17.0620   -33.1000 ha         1 OYH       0.073000
     42 H9           3.1600   -17.6680   -28.2900 ha         1 OYH       0.137500
     43 H10          4.6930   -14.3720   -25.9710 ha         1 OYH       0.096000
     44 H11          6.6260   -15.4720   -29.6610 ha         1 OYH       0.137500
     45 H12          4.3600   -21.4380   -31.3020 ha         1 OYH       0.126000
     46 H13          5.3910   -24.0500   -36.6720 ha         1 OYH       0.104000
     47 H14          3.1700   -25.2650   -33.1870 ha         1 OYH       0.104000
     48 H15          5.0440   -19.7870   -35.2710 ha         1 OYH       0.122000
     49 H16          5.3760   -13.4030   -33.1070 ha         1 OYH       0.091000
     50 H17          5.0100   -15.0970   -31.5360 hn         1 OYH       0.482000
     51 C02          9.1150   -13.6660   -35.9660 c          1 OYH       0.715600
@<TRIPOS>BOND
     1     1    14 2   
     2     1    15 1   
     3     1    28 1   
     4     2    16 ar  
     5     2    17 ar  
     6     2    34 1   
     7     3    17 ar  
     8     3    18 ar  
     9     3    35 1   
    10     4     5 1   
    11     4    20 2   
    12     4    23 1   
    13     5     6 ar  
    14     5     8 ar  
    15     6    21 ar  
    16     6    36 1   
    17     7    21 ar  
    18     7    22 ar  
    19     7    37 1   
    20     8    22 ar  
    21     8    38 1   
    22     9    23 2   
    23     9    29 1   
    24     9    39 1   
    25    10    11 ar  
    26    10    25 ar  
    27    10    51 1   
    28    11    12 ar  
    29    11    40 1   
    30    12    13 ar  
    31    12    41 1   
    32    13    24 ar  
    33    13    27 1   
    34    14    27 1   
    35    14    29 1   
    36    15    16 ar  
    37    15    18 ar  
    38    16    42 1   
    39    17    43 1   
    40    18    44 1   
    41    19    20 1   
    42    19    28 2   
    43    19    29 1   
    44    20    45 1   
    45    21    46 1   
    46    22    47 1   
    47    23    48 1   
    48    24    25 ar  
    49    24    49 1   
    50    25    26 1   
    51    26    32 1   
    52    26    33 1   
    53    27    50 1   
    54    30    51 1   
    55    31    51 1   
@<TRIPOS>SUBSTRUCTURE
     1 OYH         1 TEMP              0 ****  ****    0 ROOT
