@<TRIPOS>MOLECULE
OYH
   51    55     1     0     0
SMALL
abcg2


@<TRIPOS>ATOM
      1 C10          4.9650   -17.4480   -30.6220 cc         1 OYH       0.087400
      2 C13          4.8420   -16.1430   -27.0970 ca         1 OYH      -0.123000
      3 C15          5.7580   -14.4230   -28.5050 ca         1 OYH      -0.123000
      4 C20          4.5420   -20.9550   -33.4450 cc         1 OYH      -0.045000
      5 C21          4.4240   -22.3500   -33.9190 ca         1 OYH      -0.008000
      6 C22          4.9660   -22.7380   -35.1500 ca         1 OYH      -0.102000
      7 C24          4.2100   -25.0040   -34.8150 ca         1 OYH      -0.124000
      8 C26          3.7690   -23.3180   -33.1480 ca         1 OYH      -0.102000
      9 C28          4.6320   -18.5840   -33.9720 cd         1 OYH      -0.053000
     10 C04          8.2990   -14.0540   -34.2320 ca         1 OYH      -0.106600
     11 C05          8.3370   -15.3670   -33.7630 ca         1 OYH      -0.092000
     12 C06          7.2180   -16.0070   -33.2480 ca         1 OYH      -0.211000
     13 C07          6.0080   -15.3140   -33.1730 ca         1 OYH       0.206000
     14 C09          4.8760   -17.1130   -31.9660 cd         1 OYH       0.107900
     15 C11          5.1030   -16.5460   -29.4740 ca         1 OYH      -0.008800
     16 C12          4.7140   -16.9770   -28.2000 ca         1 OYH      -0.089000
     17 C14          5.3630   -14.8610   -27.2450 ca         1 OYH      -0.124000
     18 C16          5.6310   -15.2550   -29.6110 ca         1 OYH      -0.089000
     19 C18          4.7650   -19.3290   -31.6770 cd         1 OYH      -0.094000
     20 C19          4.6620   -20.6630   -32.1030 cd         1 OYH      -0.072000
     21 C23          4.8630   -24.0520   -35.5920 ca         1 OYH      -0.116500
     22 C25          3.6640   -24.6300   -33.5900 ca         1 OYH      -0.116500
     23 C27          4.5300   -19.8760   -34.3820 cc         1 OYH      -0.179000
     24 C30          5.9550   -13.9980   -33.6360 ca         1 OYH      -0.167000
     25 C31          7.0770   -13.3630   -34.1600 ca         1 OYH      -0.048600
     26 C32          6.9180   -11.9010   -34.5570 c          1 OYH       0.737600
     27 N08          4.8510   -15.9090   -32.6560 nu         1 OYH      -0.853000
     28 N17          4.8850   -18.8080   -30.4570 nc         1 OYH      -0.302600
     29 N29          4.7500   -18.3190   -32.6370 na         1 OYH       0.117100
     30 O01         10.6530   -13.7510   -34.2550 o          1 OYH      -0.731500
     31 O03          9.4440   -12.7130   -35.8310 o          1 OYH      -0.731500
     32 O33          7.4580   -11.0580   -33.7980 o          1 OYH      -0.735000
     33 O34          6.2110   -11.6570   -35.5670 o          1 OYH      -0.735000
     34 H1           4.5330   -16.4950   -26.1200 ha         1 OYH       0.107500
     35 H2           6.1730   -13.4300   -28.6300 ha         1 OYH       0.107500
     36 H3           5.4920   -22.0140   -35.7590 ha         1 OYH       0.119000
     37 H4           4.1270   -26.0260   -35.1610 ha         1 OYH       0.100000
     38 H5           3.3200   -23.0370   -32.2040 ha         1 OYH       0.119000
     39 H6           4.6160   -17.7300   -34.6320 h4         1 OYH       0.178000
     40 H7           9.2770   -15.9030   -33.8070 ha         1 OYH       0.105000
     41 H8           7.2860   -17.0280   -32.8950 ha         1 OYH       0.073000
     42 H9           4.3070   -17.9730   -28.0850 ha         1 OYH       0.137500
     43 H10          5.4630   -14.2100   -26.3850 ha         1 OYH       0.096000
     44 H11          5.9620   -14.9040   -30.5770 ha         1 OYH       0.137500
     45 H12          4.6960   -21.4400   -31.3520 ha         1 OYH       0.126000
     46 H13          5.2970   -24.3320   -36.5440 ha         1 OYH       0.104000
     47 H14          3.1460   -25.3610   -32.9820 ha         1 OYH       0.104000
     48 H15          4.4160   -20.0730   -35.4370 ha         1 OYH       0.122000
     49 H16          5.0170   -13.4570   -33.5690 ha         1 OYH       0.091000
     50 H17          4.1040   -15.2720   -32.4200 hn         1 OYH       0.482000
     51 C02          9.5650   -13.4470   -34.8170 c          1 OYH       0.715600
@<TRIPOS>BOND
     1     1    14 2   
     2     1    15 1   
     3     1    28 1   
     4     2    16 ar  
     5     2    17 ar  
     6     2    34 1   
     7     3    17 ar  
     8     3    18 ar  
     9     3    35 1   
    10     4     5 1   
    11     4    20 2   
    12     4    23 1   
    13     5     6 ar  
    14     5     8 ar  
    15     6    21 ar  
    16     6    36 1   
    17     7    21 ar  
    18     7    22 ar  
    19     7    37 1   
    20     8    22 ar  
    21     8    38 1   
    22     9    23 2   
    23     9    29 1   
    24     9    39 1   
    25    10    11 ar  
    26    10    25 ar  
    27    10    51 1   
    28    11    12 ar  
    29    11    40 1   
    30    12    13 ar  
    31    12    41 1   
    32    13    24 ar  
    33    13    27 1   
    34    14    27 1   
    35    14    29 1   
    36    15    16 ar  
    37    15    18 ar  
    38    16    42 1   
    39    17    43 1   
    40    18    44 1   
    41    19    20 1   
    42    19    28 2   
    43    19    29 1   
    44    20    45 1   
    45    21    46 1   
    46    22    47 1   
    47    23    48 1   
    48    24    25 ar  
    49    24    49 1   
    50    25    26 1   
    51    26    32 1   
    52    26    33 1   
    53    27    50 1   
    54    30    51 1   
    55    31    51 1   
@<TRIPOS>SUBSTRUCTURE
     1 OYH         1 TEMP              0 ****  ****    0 ROOT
