@<TRIPOS>MOLECULE
OYI
   28    28     1     0     0
SMALL
No Charge or Current Charge


@<TRIPOS>ATOM
      1 C2          15.8400    18.4460     2.2140 c3         1 OYI       0.116000
      2 O1          15.1710    21.7110     0.8810 o          1 OYI      -0.583100
      3 C9          21.2950    22.0450     3.1600 c          1 OYI       0.585500
      4 C10         19.6600    20.5300     1.9800 ca         1 OYI       0.201000
      5 C4          15.8820    20.7990     1.2880 c          1 OYI       0.610700
      6 C3          14.7510    18.1710     3.2760 c3         1 OYI       0.057600
      7 C8          19.9070    21.7230     2.6830 ca         1 OYI      -0.226600
      8 C7          18.8360    22.6110     2.9200 ca         1 OYI      -0.033000
      9 C6          17.5420    22.2990     2.4690 ca         1 OYI      -0.091000
     10 C5          17.2840    21.0910     1.7880 ca         1 OYI      -0.081600
     11 C1          14.2320    19.1440     0.4040 c3         1 OYI       0.083300
     12 C11         18.3680    20.2190     1.5300 ca         1 OYI      -0.148000
     13 N1          15.4510    19.4530     1.1870 n          1 OYI      -0.401800
     14 S1          14.2930    19.6590     4.2900 sh         1 OYI      -0.455800
     15 H1          16.0810    17.5040     1.7030 h1         1 OYI       0.065200
     16 H2          16.7400    18.7600     2.7520 h1         1 OYI       0.065200
     17 H3          22.0870    21.2980     2.9330 h4         1 OYI       0.009200
     18 H6          13.8450    17.7880     2.7880 h1         1 OYI       0.067200
     19 H7          15.1130    17.3910     3.9590 h1         1 OYI       0.067200
     20 H8          19.0020    23.5460     3.4530 ha         1 OYI       0.142000
     21 H9          16.7300    22.9990     2.6590 ha         1 OYI       0.143000
     22 H10         14.1280    18.0590     0.2740 h1         1 OYI       0.046700
     23 H11         13.3470    19.5310     0.9250 h1         1 OYI       0.046700
     24 H12         14.2980    19.6100    -0.5880 h1         1 OYI       0.046700
     25 H13         18.2170    19.3020     0.9650 ha         1 OYI       0.140000
     26 H14         13.3680    19.0360     5.0630 hs         1 OYI       0.219800
     27 O2          21.5690    23.0730     3.7720 o          1 OYI      -0.514100
     28 F1          20.6680    19.6680     1.7200 f          1 OYI      -0.177000
@<TRIPOS>BOND
     1     1     6 1   
     2     1    13 1   
     3     1    15 1   
     4     1    16 1   
     5     2     5 2   
     6     3     7 1   
     7     3    17 1   
     8     3    27 2   
     9     4     7 ar  
    10     4    12 ar  
    11     4    28 1   
    12     5    10 1   
    13     5    13 1   
    14     6    14 1   
    15     6    18 1   
    16     6    19 1   
    17     7     8 ar  
    18     8     9 ar  
    19     8    20 1   
    20     9    10 ar  
    21     9    21 1   
    22    10    12 ar  
    23    11    13 1   
    24    11    22 1   
    25    11    23 1   
    26    11    24 1   
    27    12    25 1   
    28    14    26 1   
@<TRIPOS>SUBSTRUCTURE
     1 OYI         1 TEMP              0 ****  ****    0 ROOT
