@<TRIPOS>MOLECULE
OYI
   28    28     1     0     0
SMALL
abcg2


@<TRIPOS>ATOM
      1 C2          15.8410    18.4540     2.1940 c3         1 OYI       0.116000
      2 O1          15.4520    21.5560     0.3930 o          1 OYI      -0.583100
      3 C9          21.1260    22.0470     3.2730 c          1 OYI       0.585500
      4 C10         19.6630    20.5940     1.8600 ca         1 OYI       0.201000
      5 C4          15.9800    20.6610     1.0570 c          1 OYI       0.610700
      6 C3          14.8460    18.3270     3.3440 c3         1 OYI       0.057600
      7 C8          19.8080    21.6630     2.7430 ca         1 OYI      -0.226600
      8 C7          18.6510    22.3700     3.0980 ca         1 OYI      -0.033000
      9 C6          17.4190    22.0230     2.5790 ca         1 OYI      -0.091000
     10 C5          17.3110    20.9440     1.6980 ca         1 OYI      -0.081600
     11 C1          14.1910    19.1590     0.4780 c3         1 OYI       0.083300
     12 C11         18.4420    20.2200     1.3340 ca         1 OYI      -0.148000
     13 N1          15.4350    19.4340     1.1900 n          1 OYI      -0.401800
     14 S1          14.7330    19.9120     4.2640 sh         1 OYI      -0.455800
     15 H1          15.9290    17.4790     1.7090 h1         1 OYI       0.065200
     16 H2          16.8190    18.7190     2.5820 h1         1 OYI       0.065200
     17 H3          21.9740    21.4220     2.9530 h4         1 OYI       0.009200
     18 H6          13.8560    18.0640     2.9790 h1         1 OYI       0.067200
     19 H7          15.1920    17.5430     4.0160 h1         1 OYI       0.067200
     20 H8          18.7470    23.2000     3.7850 ha         1 OYI       0.142000
     21 H9          16.5340    22.5820     2.8500 ha         1 OYI       0.143000
     22 H10         14.0770    18.0800     0.3860 h1         1 OYI       0.046700
     23 H11         13.3280    19.5650     1.0110 h1         1 OYI       0.046700
     24 H12         14.2310    19.6070    -0.5110 h1         1 OYI       0.046700
     25 H13         18.3860    19.3840     0.6500 ha         1 OYI       0.140000
     26 H14         13.6750    19.5770     5.0200 hs         1 OYI       0.219800
     27 O2          21.3040    22.9920     4.0180 o          1 OYI      -0.514100
     28 F1          20.7550    19.8880     1.4960 f          1 OYI      -0.177000
@<TRIPOS>BOND
     1     1     6 1   
     2     1    13 1   
     3     1    15 1   
     4     1    16 1   
     5     2     5 2   
     6     3     7 1   
     7     3    17 1   
     8     3    27 2   
     9     4     7 ar  
    10     4    12 ar  
    11     4    28 1   
    12     5    10 1   
    13     5    13 1   
    14     6    14 1   
    15     6    18 1   
    16     6    19 1   
    17     7     8 ar  
    18     8     9 ar  
    19     8    20 1   
    20     9    10 ar  
    21     9    21 1   
    22    10    12 ar  
    23    11    13 1   
    24    11    22 1   
    25    11    23 1   
    26    11    24 1   
    27    12    25 1   
    28    14    26 1   
@<TRIPOS>SUBSTRUCTURE
     1 OYI         1 TEMP              0 ****  ****    0 ROOT
