@<TRIPOS>MOLECULE
OYJ
   58    61     1     0     0
SMALL
bcc


@<TRIPOS>ATOM
      1 S1           1.8920     5.1410     0.0240 s6         1 OYJ       1.246900
      2 C2           0.5410     1.5770    -0.7400 c5         1 OYJ      -0.151700
      3 C3           1.8850     1.3640    -0.0660 c5         1 OYJ      -0.160700
      4 N4           1.6180     3.6380    -0.5750 n3         1 OYJ      -0.756500
      5 C5          -0.5510     0.6830    -0.1910 c          1 OYJ       0.687100
      6 N6          -6.7160    -1.3730     0.5000 n          1 OYJ      -0.269200
      7 C7           2.5790     0.0830    -0.4770 c          1 OYJ       0.694100
      8 C8           0.2730     3.0630    -0.4780 c5         1 OYJ       0.218800
      9 C9           2.6670     2.6150    -0.4810 c5         1 OYJ       0.219800
     10 C10         -7.2570    -2.4240    -0.2450 c          1 OYJ       0.698700
     11 C11         -5.4350    -0.8700     0.1260 ca         1 OYJ       0.033600
     12 N12         -1.7150     0.7620    -0.8870 ns         1 OYJ      -0.470100
     13 C13         -5.3540     0.3620    -0.5030 ca         1 OYJ      -0.143000
     14 N14          3.4970    -0.3400     0.4290 ns         1 OYJ      -0.465100
     15 C15         -2.9310     0.1730    -0.5300 ca         1 OYJ       0.029600
     16 C16         -4.1080     0.8620    -0.8070 ca         1 OYJ       0.097900
     17 C17          6.0390    -2.7060     1.5160 ca         1 OYJ       0.176900
     18 C18          5.1550    -1.6530     1.4970 ca         1 OYJ      -0.229000
     19 O19          3.2160     5.5420    -0.4220 o          1 OYJ      -0.594300
     20 O20          0.7340     5.9480    -0.3270 o          1 OYJ      -0.594300
     21 C21         -7.3600    -0.7860     1.5490 cc         1 OYJ       0.024600
     22 C22          4.3610    -1.4320     0.3700 ca         1 OYJ       0.103600
     23 O23         -0.3930    -0.0120     0.7910 o          1 OYJ      -0.575100
     24 O24          2.3450    -0.4740    -1.5320 o          1 OYJ      -0.563100
     25 C25         -8.5580    -2.8540     0.1940 cc         1 OYJ      -0.267200
     26 C26          6.1670    -3.5650     0.4370 ca         1 OYJ      -0.050600
     27 O27         -6.6330    -2.8980    -1.1870 o          1 OYJ      -0.616500
     28 C28         -4.2870    -1.5890     0.4110 ca         1 OYJ      -0.097000
     29 C29         -3.0440    -1.0760     0.0780 ca         1 OYJ      -0.104000
     30 C30         -8.5860    -1.1980     1.9470 cd         1 OYJ      -0.246000
     31 C31         -9.1920    -2.2660     1.2410 cd         1 OYJ      -0.035000
     32 C32          5.3800    -3.3440    -0.6790 ca         1 OYJ      -0.068000
     33 C33          1.9330     4.9780     1.7960 c3         1 OYJ      -0.273300
     34 F34         -4.0180     2.0610    -1.4000 f          1 OYJ      -0.143900
     35 C36          4.4800    -2.2900    -0.7250 ca         1 OYJ      -0.160000
     36 CL           7.2880    -4.8700     0.5050 cl         1 OYJ      -0.073400
     37 H331         2.7240     4.2880     2.0830 h1         1 OYJ       0.101033
     38 H332         2.1370     5.9600     2.2190 h1         1 OYJ       0.101033
     39 H333         0.9720     4.6170     2.1540 h1         1 OYJ       0.101033
     40 H2           0.6350     1.4170    -1.8180 hc         1 OYJ       0.110700
     41 H3           1.7470     1.3810     1.0190 hc         1 OYJ       0.081700
     42 H81C        -0.3950     3.5060    -1.2140 h1         1 OYJ       0.067700
     43 H82C        -0.1660     3.2040     0.5160 h1         1 OYJ       0.067700
     44 H91C         3.4380     2.8660     0.2460 h1         1 OYJ       0.072700
     45 H92C         3.1510     2.4870    -1.4510 h1         1 OYJ       0.072700
     46 H12         -1.7330     1.3850    -1.6810 hn         1 OYJ       0.335500
     47 H21         -6.8270     0.0160     2.0380 h4         1 OYJ       0.154000
     48 H14          3.5550     0.2000     1.2800 hn         1 OYJ       0.320500
     49 H25         -9.0150    -3.6660    -0.3540 ha         1 OYJ       0.160000
     50 H13         -6.2420     0.9330    -0.7400 ha         1 OYJ       0.163000
     51 H28         -4.3530    -2.5530     0.8980 ha         1 OYJ       0.157000
     52 H29         -2.1600    -1.6560     0.2910 ha         1 OYJ       0.167000
     53 H18          5.0870    -1.0070     2.3640 ha         1 OYJ       0.149000
     54 H30         -9.0740    -0.7190     2.7820 ha         1 OYJ       0.152000
     55 H36          3.8860    -2.1530    -1.6130 ha         1 OYJ       0.174000
     56 H31        -10.1720    -2.6150     1.5390 ha         1 OYJ       0.138000
     57 H32          5.4680    -4.0020    -1.5330 ha         1 OYJ       0.154000
     58 F35          6.7880    -2.9060     2.6000 f          1 OYJ      -0.123900
@<TRIPOS>BOND
     1     1     4 1   
     2     1    19 2   
     3     1    20 2   
     4     1    33 1   
     5     2     3 1   
     6     2     5 1   
     7     2     8 1   
     8     2    40 1   
     9     3     7 1   
    10     3     9 1   
    11     3    41 1   
    12     4     8 1   
    13     4     9 1   
    14     5    12 1   
    15     5    23 2   
    16     6    10 1   
    17     6    11 1   
    18     6    21 1   
    19     7    14 1   
    20     7    24 2   
    21     8    42 1   
    22     8    43 1   
    23     9    44 1   
    24     9    45 1   
    25    10    25 1   
    26    10    27 2   
    27    11    13 ar  
    28    11    28 ar  
    29    12    15 1   
    30    12    46 1   
    31    13    16 ar  
    32    13    50 1   
    33    14    22 1   
    34    14    48 1   
    35    15    16 ar  
    36    15    29 ar  
    37    16    34 1   
    38    17    18 ar  
    39    17    26 ar  
    40    17    58 1   
    41    18    22 ar  
    42    18    53 1   
    43    21    30 2   
    44    21    47 1   
    45    22    35 ar  
    46    25    31 2   
    47    25    49 1   
    48    26    32 ar  
    49    26    36 1   
    50    28    29 ar  
    51    28    51 1   
    52    29    52 1   
    53    30    31 1   
    54    30    54 1   
    55    31    56 1   
    56    32    35 ar  
    57    32    57 1   
    58    33    37 1   
    59    33    38 1   
    60    33    39 1   
    61    35    55 1   
@<TRIPOS>SUBSTRUCTURE
     1 OYJ         1 TEMP              0 ****  ****    0 ROOT
