@<TRIPOS>MOLECULE
OYJ
   58    61     1     0     0
SMALL
No Charge or Current Charge


@<TRIPOS>ATOM
      1 S1           2.6590     5.6200    -0.0860 s6         1 OYJ       1.216100
      2 C2           0.6480     2.2320     0.0860 c5         1 OYJ      -0.151700
      3 C3           2.0600     1.6870     0.5330 c5         1 OYJ      -0.160700
      4 N4           2.0960     4.0000    -0.0430 n3         1 OYJ      -0.756500
      5 C5          -0.5070     1.5860     0.8910 c          1 OYJ       0.620100
      6 N6          -6.3460    -1.8300     0.6140 n          1 OYJ      -0.202200
      7 C7           2.6350     0.7020    -0.5200 c          1 OYJ       0.627100
      8 C8           0.7440     3.7230     0.4630 c5         1 OYJ       0.218800
      9 C9           2.9540     2.9640     0.5740 c5         1 OYJ       0.219800
     10 C10         -6.5990    -2.7580     1.6600 c          1 OYJ       0.556200
     11 C11         -5.0510    -1.1880     0.4800 ca         1 OYJ       0.033600
     12 N12         -1.4100     1.0100     0.0050 ns         1 OYJ      -0.144000
     13 C13         -4.4800    -0.9570    -0.7910 ca         1 OYJ      -0.125000
     14 N14          2.9220    -0.5040     0.1070 ns         1 OYJ      -0.139000
     15 C15         -2.6270     0.2950     0.2070 ca         1 OYJ      -0.063000
     16 C16         -3.2780    -0.2440    -0.9190 ca         1 OYJ       0.133000
     17 C17          4.1020    -4.0300     0.1310 ca         1 OYJ       0.212000
     18 C18          3.5900    -2.7880     0.5410 ca         1 OYJ      -0.211000
     19 O19          4.0880     5.5540    -0.4080 o          1 OYJ      -0.523500
     20 O20          1.7510     6.3550    -0.9710 o          1 OYJ      -0.523500
     21 C21         -7.3080    -1.6260    -0.3890 cc         1 OYJ      -0.025400
     22 C22          3.4470    -1.7320    -0.3800 ca         1 OYJ       0.011000
     23 O23         -0.6030     1.5610     2.1120 o          1 OYJ      -0.575100
     24 O24          2.7920     0.9300    -1.7140 o          1 OYJ      -0.563100
     25 C25         -7.9130    -3.4160     1.6180 cc         1 OYJ      -0.317200
     26 C26          4.4800    -4.2350    -1.2080 ca         1 OYJ       0.041000
     27 O27         -5.7860    -3.0300     2.5340 o          1 OYJ      -0.541000
     28 C28         -4.4250    -0.6000     1.6020 ca         1 OYJ      -0.079000
     29 C29         -3.2220     0.1170     1.4740 ca         1 OYJ      -0.086000
     30 C30         -8.5240    -2.2820    -0.4090 cd         1 OYJ      -0.296000
     31 C31         -8.8510    -3.2080     0.6330 cd         1 OYJ      -0.085000
     32 C32          4.3420    -3.1880    -2.1340 ca         1 OYJ      -0.050000
     33 C33          2.4740     6.2060     1.5910 c3         1 OYJ      -0.384100
     34 F34         -2.7450    -0.0760    -2.1510 f          1 OYJ      -0.179000
     35 C36          3.8290    -1.9430    -1.7240 ca         1 OYJ      -0.142000
     36 Cl           5.1240    -5.7880    -1.7400 cl         1 OYJ      -0.165000
     37 H331         3.0580     5.5480     2.2410 h1         1 OYJ       0.101033
     38 H332         2.8560     7.2310     1.6200 h1         1 OYJ       0.101033
     39 H333         1.4090     6.1770     1.8410 h1         1 OYJ       0.101033
     40 H2           0.4870     2.1320    -0.9950 hc         1 OYJ       0.110700
     41 H3           2.0330     1.2240     1.5270 hc         1 OYJ       0.081700
     42 H81C        -0.0290     4.3240    -0.0360 h1         1 OYJ       0.067700
     43 H82C         0.6690     3.8910     1.5480 h1         1 OYJ       0.067700
     44 H91C         3.2030     3.2220     1.6130 h1         1 OYJ       0.072700
     45 H92C         3.9030     2.8370     0.0330 h1         1 OYJ       0.072700
     46 H12         -1.1600     1.1140    -0.9700 hn         1 OYJ       0.169000
     47 H21         -7.0160    -0.8800    -1.1190 h4         1 OYJ       0.204000
     48 H14          2.7200    -0.5150     1.0980 hn         1 OYJ       0.154000
     49 H25         -8.0960    -4.1130     2.4280 ha         1 OYJ       0.210000
     50 H13         -4.9370    -1.3640    -1.6880 ha         1 OYJ       0.145000
     51 H28         -4.8780    -0.6810     2.5860 ha         1 OYJ       0.139000
     52 H29         -2.7820     0.5410     2.3720 ha         1 OYJ       0.149000
     53 H18          3.3040    -2.6510     1.5810 ha         1 OYJ       0.131000
     54 H30         -9.2370    -2.0800    -1.2070 ha         1 OYJ       0.202000
     55 H36          3.7400    -1.1580    -2.4690 ha         1 OYJ       0.156000
     56 H31         -9.8070    -3.7310     0.6450 ha         1 OYJ       0.188000
     57 H32          4.6330    -3.3420    -3.1710 ha         1 OYJ       0.136000
     58 F35          4.2270    -5.0260     1.0370 f          1 OYJ      -0.159000
@<TRIPOS>BOND
     1     1     4 1   
     2     1    19 2   
     3     1    20 2   
     4     1    33 1   
     5     2     3 1   
     6     2     5 1   
     7     2     8 1   
     8     2    40 1   
     9     3     7 1   
    10     3     9 1   
    11     3    41 1   
    12     4     8 1   
    13     4     9 1   
    14     5    12 1   
    15     5    23 2   
    16     6    10 1   
    17     6    11 1   
    18     6    21 1   
    19     7    14 1   
    20     7    24 2   
    21     8    42 1   
    22     8    43 1   
    23     9    44 1   
    24     9    45 1   
    25    10    25 1   
    26    10    27 2   
    27    11    13 ar  
    28    11    28 ar  
    29    12    15 1   
    30    12    46 1   
    31    13    16 ar  
    32    13    50 1   
    33    14    22 1   
    34    14    48 1   
    35    15    16 ar  
    36    15    29 ar  
    37    16    34 1   
    38    17    18 ar  
    39    17    26 ar  
    40    17    58 1   
    41    18    22 ar  
    42    18    53 1   
    43    21    30 2   
    44    21    47 1   
    45    22    35 ar  
    46    25    31 2   
    47    25    49 1   
    48    26    32 ar  
    49    26    36 1   
    50    28    29 ar  
    51    28    51 1   
    52    29    52 1   
    53    30    31 1   
    54    30    54 1   
    55    31    56 1   
    56    32    35 ar  
    57    32    57 1   
    58    33    37 1   
    59    33    38 1   
    60    33    39 1   
    61    35    55 1   
@<TRIPOS>SUBSTRUCTURE
     1 OYJ         1 TEMP              0 ****  ****    0 ROOT
