@<TRIPOS>MOLECULE
OYK
   21    22     1     0     0
SMALL
abcg2


@<TRIPOS>ATOM
      1 N12        -24.1060    27.5320   -23.3160 nb         1 OYK      -0.220000
      2 C01        -22.8370    30.2950   -23.1050 c3         1 OYK       0.073900
      3 C03        -21.1230    28.9750   -24.3920 cc         1 OYK       0.399700
      4 C05        -22.9200    27.8910   -23.8110 ca         1 OYK       0.119500
      5 C06        -22.0430    27.0840   -24.5180 ca         1 OYK      -0.098600
      6 C07        -22.4570    25.7540   -24.7330 ca         1 OYK       0.444900
      7 C09        -22.1070    23.5050   -25.6370 c3         1 OYK       0.225100
      8 C11        -24.3800    26.2680   -23.5770 ca         1 OYK       0.179900
      9 N02        -22.3130    29.1070   -23.7390 na         1 OYK      -0.277300
     10 N04        -20.9200    27.7820   -24.8740 nd         1 OYK      -0.552100
     11 N08        -21.7120    24.8720   -25.4050 nu         1 OYK      -0.915100
     12 N10        -23.6420    25.3790   -24.2410 nb         1 OYK      -0.299000
     13 H1         -22.9810    30.1280   -22.0390 h1         1 OYK       0.055700
     14 H2         -22.1280    31.1070   -23.2410 h1         1 OYK       0.055700
     15 H3         -23.7870    30.5780   -23.5520 h1         1 OYK       0.055700
     16 H4         -20.4420    29.8090   -24.4790 h5         1 OYK       0.063800
     17 H5         -21.3280    23.0210   -26.2190 h1         1 OYK       0.043367
     18 H6         -22.2320    22.9530   -24.7040 h1         1 OYK       0.043367
     19 H7         -23.0410    23.4440   -26.1950 h1         1 OYK       0.043367
     20 H8         -25.3300    25.8970   -23.2040 h5         1 OYK       0.045100
     21 H9         -20.8210    25.1830   -25.7530 hn         1 OYK       0.515000
@<TRIPOS>BOND
     1     1     4 ar  
     2     1     8 ar  
     3     2     9 1   
     4     2    13 1   
     5     2    14 1   
     6     2    15 1   
     7     3     9 1   
     8     3    10 2   
     9     3    16 1   
    10     4     5 ar  
    11     4     9 1   
    12     5     6 ar  
    13     5    10 1   
    14     6    11 1   
    15     6    12 ar  
    16     7    11 1   
    17     7    17 1   
    18     7    18 1   
    19     7    19 1   
    20     8    12 ar  
    21     8    20 1   
    22    11    21 1   
@<TRIPOS>SUBSTRUCTURE
     1 OYK         1 TEMP              0 ****  ****    0 ROOT
