@<TRIPOS>MOLECULE
OYK
   21    22     1     0     0
SMALL
No Charge or Current Charge


@<TRIPOS>ATOM
      1 N12        -24.1340    27.5490   -23.2960 nb         1 OYK      -0.220000
      2 C01        -22.8170    30.3330   -23.0950 c3         1 OYK       0.073900
      3 C03        -21.0650    28.9860   -24.4310 cc         1 OYK       0.399700
      4 C05        -22.9440    27.9440   -23.7880 ca         1 OYK       0.119500
      5 C06        -22.1150    27.0990   -24.4850 ca         1 OYK      -0.098600
      6 C07        -22.5380    25.7680   -24.6890 ca         1 OYK       0.444900
      7 C09        -22.0410    23.4490   -25.6830 c3         1 OYK       0.225100
      8 C11        -24.4630    26.2570   -23.5360 ca         1 OYK       0.179900
      9 N02        -22.2780    29.1340   -23.7550 na         1 OYK      -0.277300
     10 N04        -20.9320    27.7290   -24.8990 nd         1 OYK      -0.552100
     11 N08        -21.7460    24.8620   -25.3870 nu         1 OYK      -0.915100
     12 N10        -23.7240    25.3430   -24.2090 nb         1 OYK      -0.299000
     13 H1         -22.9790    30.1270   -22.0300 h1         1 OYK       0.055700
     14 H2         -22.1110    31.1660   -23.1970 h1         1 OYK       0.055700
     15 H3         -23.7720    30.6120   -23.5590 h1         1 OYK       0.055700
     16 H4         -20.3540    29.7960   -24.5430 h5         1 OYK       0.063800
     17 H5         -21.2180    22.9960   -26.2530 h1         1 OYK       0.043367
     18 H6         -22.1720    22.8790   -24.7540 h1         1 OYK       0.043367
     19 H7         -22.9610    23.3630   -26.2770 h1         1 OYK       0.043367
     20 H8         -25.4220    25.9190   -23.1460 h5         1 OYK       0.045100
     21 H9         -20.8630    25.2540   -25.7210 hn         1 OYK       0.515000
@<TRIPOS>BOND
     1     1     4 ar  
     2     1     8 ar  
     3     2     9 1   
     4     2    13 1   
     5     2    14 1   
     6     2    15 1   
     7     3     9 1   
     8     3    10 2   
     9     3    16 1   
    10     4     5 ar  
    11     4     9 1   
    12     5     6 ar  
    13     5    10 1   
    14     6    11 1   
    15     6    12 ar  
    16     7    11 1   
    17     7    17 1   
    18     7    18 1   
    19     7    19 1   
    20     8    12 ar  
    21     8    20 1   
    22    11    21 1   
@<TRIPOS>SUBSTRUCTURE
     1 OYK         1 TEMP              0 ****  ****    0 ROOT
