@<TRIPOS>MOLECULE
OYL
   25    25     1     0     0
SMALL
No Charge or Current Charge


@<TRIPOS>ATOM
      1 C          -16.5100    37.4990     3.8030 c          1 OYL       0.912600
      2 O          -15.4400    37.7650     4.3400 o          1 OYL      -0.839800
      3 CA         -16.4870    36.6880     2.4300 c3         1 OYL       0.015500
      4 N          -17.6180    35.7190     2.1640 n8         1 OYL      -0.894800
      5 CB         -16.3020    37.6400     1.2200 c3         1 OYL      -0.073700
      6 CG         -17.3630    38.7030     1.1010 cc         1 OYL       0.355600
      7 CD2        -18.5820    38.6010     0.4860 cd         1 OYL      -0.286600
      8 NE2        -19.1640    39.8470     0.6310 na         1 OYL      -0.206900
      9 CE1        -18.2620    40.6450     1.3200 cd         1 OYL       0.370400
     10 ND1        -17.1640    39.9590     1.6020 nc         1 OYL      -0.630000
     11 CZ         -20.4880    40.2560     0.1390 c3         1 OYL       0.051300
     12 CT         -20.4520    40.7550    -1.3170 c3         1 OYL      -0.111100
     13 OXT        -17.5850    37.6730     4.3700 o          1 OYL      -0.839800
     14 H1         -15.5810    36.0690     2.4730 h1         1 OYL       0.035700
     15 H2         -17.6580    35.0370     2.9290 hn         1 OYL       0.325800
     16 H3         -18.5050    36.2270     2.2480 hn         1 OYL       0.325800
     17 H5         -16.2700    37.0510     0.2950 hc         1 OYL       0.038700
     18 H6         -15.3180    38.1170     1.3020 hc         1 OYL       0.038700
     19 H7         -19.0490    37.7660    -0.0210 h4         1 OYL       0.163000
     20 H8         -18.4670    41.6810     1.5640 h5         1 OYL       0.034100
     21 H9         -20.8760    41.0520     0.7870 h1         1 OYL       0.049200
     22 H10        -21.1710    39.4000     0.2130 h1         1 OYL       0.049200
     23 H11        -21.4570    41.0480    -1.6430 hc         1 OYL       0.038700
     24 H12        -19.7910    41.6250    -1.4110 hc         1 OYL       0.038700
     25 H13        -20.0880    39.9670    -1.9870 hc         1 OYL       0.038700
@<TRIPOS>BOND
     1     1     2 1   
     2     1     3 1   
     3     1    13 1   
     4     3     4 1   
     5     3     5 1   
     6     3    14 1   
     7     4    15 1   
     8     4    16 1   
     9     5     6 1   
    10     5    17 1   
    11     5    18 1   
    12     6     7 2   
    13     6    10 1   
    14     7     8 1   
    15     7    19 1   
    16     8     9 1   
    17     8    11 1   
    18     9    10 2   
    19     9    20 1   
    20    11    12 1   
    21    11    21 1   
    22    11    22 1   
    23    12    23 1   
    24    12    24 1   
    25    12    25 1   
@<TRIPOS>SUBSTRUCTURE
     1 OYL         1 TEMP              0 ****  ****    0 ROOT
