@<TRIPOS>MOLECULE
OYL
   25    25     1     0     0
SMALL
bcc


@<TRIPOS>ATOM
      1 C          -16.3730    37.4430     3.7470 c          1 OYL       0.912600
      2 O          -15.2270    37.8660     4.0090 o          1 OYL      -0.839800
      3 CA         -16.5140    36.6830     2.4040 c3         1 OYL       0.015500
      4 N          -17.7520    35.9430     2.2140 n8         1 OYL      -0.894800
      5 CB         -16.3120    37.6510     1.2240 c3         1 OYL      -0.073700
      6 CG         -17.3760    38.6920     1.1140 cc         1 OYL       0.355600
      7 CD2        -18.5560    38.6230     0.4220 cd         1 OYL      -0.286600
      8 NE2        -19.2150    39.7950     0.6730 na         1 OYL      -0.206900
      9 CE1        -18.4180    40.5210     1.4820 cd         1 OYL       0.370400
     10 ND1        -17.3070    39.8920     1.7710 nc         1 OYL      -0.630000
     11 CZ         -20.4820    40.2140     0.1060 c3         1 OYL       0.051300
     12 CT         -20.3490    40.6940    -1.3290 c3         1 OYL      -0.111100
     13 OXT        -17.3980    37.5800     4.4440 o          1 OYL      -0.839800
     14 H1         -15.6920    35.9600     2.3500 h1         1 OYL       0.035700
     15 H2         -17.8330    35.2540     2.9520 hn         1 OYL       0.325800
     16 H3         -18.5250    36.5780     2.3810 hn         1 OYL       0.325800
     17 H5         -16.2850    37.0660     0.3020 hc         1 OYL       0.038700
     18 H6         -15.3400    38.1350     1.3230 hc         1 OYL       0.038700
     19 H7         -18.9710    37.8550    -0.2110 h4         1 OYL       0.163000
     20 H8         -18.7020    41.5040     1.8290 h5         1 OYL       0.034100
     21 H9         -20.8780    41.0080     0.7400 h1         1 OYL       0.049200
     22 H10        -21.1780    39.3770     0.1690 h1         1 OYL       0.049200
     23 H11        -21.3230    41.0000    -1.7100 hc         1 OYL       0.038700
     24 H12        -19.6760    41.5490    -1.3930 hc         1 OYL       0.038700
     25 H13        -19.9670    39.9060    -1.9770 hc         1 OYL       0.038700
@<TRIPOS>BOND
     1     1     2 1   
     2     1     3 1   
     3     1    13 1   
     4     3     4 1   
     5     3     5 1   
     6     3    14 1   
     7     4    15 1   
     8     4    16 1   
     9     5     6 1   
    10     5    17 1   
    11     5    18 1   
    12     6     7 2   
    13     6    10 1   
    14     7     8 1   
    15     7    19 1   
    16     8     9 1   
    17     8    11 1   
    18     9    10 2   
    19     9    20 1   
    20    11    12 1   
    21    11    21 1   
    22    11    22 1   
    23    12    23 1   
    24    12    24 1   
    25    12    25 1   
@<TRIPOS>SUBSTRUCTURE
     1 OYL         1 TEMP              0 ****  ****    0 ROOT
