@<TRIPOS>MOLECULE
OYO
   27    28     1     0     0
SMALL
abcg2


@<TRIPOS>ATOM
      1 C4          -3.5250   -20.0420    16.8500 c5         1 OYO       0.357300
      2 C5          -5.1920   -19.3940    15.3330 c5         1 OYO       0.165300
      3 C6          -5.4420   -20.4360    14.2600 c3         1 OYO       0.147600
      4 C7          -3.9920   -18.4940    15.0350 c5         1 OYO       0.139300
      5 C8          -2.8400   -19.1810    15.7710 c5         1 OYO       0.071300
      6 C2          -1.9260   -21.2900    15.7130 c5         1 OYO       0.390000
      7 O1          -3.0160   -21.3510    16.6450 os         1 OYO      -0.484000
      8 O2          -4.9110   -19.9790    16.6230 os         1 OYO      -0.424000
      9 O3          -6.5930   -21.1930    14.6330 oh         1 OYO      -0.709000
     10 O4          -4.2650   -17.2120    15.5910 oh         1 OYO      -0.706000
     11 O5          -2.1950   -20.1260    14.9280 os         1 OYO      -0.470000
     12 H1          -3.3460   -19.7400    17.8810 h2         1 OYO       0.100700
     13 H2          -6.0940   -18.7930    15.4590 h1         1 OYO       0.103700
     14 H3          -4.5720   -21.0830    14.1430 h1         1 OYO       0.031700
     15 H4          -5.6120   -19.9130    13.3120 h1         1 OYO       0.031700
     16 H5          -3.7810   -18.4240    13.9650 h1         1 OYO       0.067700
     17 H6          -2.1310   -18.4570    16.1780 h1         1 OYO       0.070700
     18 H7          -1.8040   -23.4080    15.4140 hc         1 OYO       0.052867
     19 H8          -2.9220   -22.5780    14.3120 hc         1 OYO       0.052867
     20 H9          -1.1660   -22.4430    14.0750 hc         1 OYO       0.052867
     21 H10         -0.6110   -20.2540    17.0900 hc         1 OYO       0.052867
     22 H11         -0.4420   -22.0160    17.0940 hc         1 OYO       0.052867
     23 H12          0.2180   -21.0690    15.7490 hc         1 OYO       0.052867
     24 H13         -6.7050   -21.9050    13.9920 ho         1 OYO       0.501000
     25 H14         -3.5050   -16.6380    15.4250 ho         1 OYO       0.507000
     26 C3          -1.9610   -22.5080    14.8180 c3         1 OYO      -0.104600
     27 C1          -0.6060   -21.1440    16.4600 c3         1 OYO      -0.104600
@<TRIPOS>BOND
     1     1     5 1   
     2     1     7 1   
     3     1     8 1   
     4     1    12 1   
     5     2     3 1   
     6     2     4 1   
     7     2     8 1   
     8     2    13 1   
     9     3     9 1   
    10     3    14 1   
    11     3    15 1   
    12     4     5 1   
    13     4    10 1   
    14     4    16 1   
    15     5    11 1   
    16     5    17 1   
    17     6     7 1   
    18     6    11 1   
    19     6    26 1   
    20     6    27 1   
    21     9    24 1   
    22    10    25 1   
    23    18    26 1   
    24    19    26 1   
    25    20    26 1   
    26    21    27 1   
    27    22    27 1   
    28    23    27 1   
@<TRIPOS>SUBSTRUCTURE
     1 OYO         1 TEMP              0 ****  ****    0 ROOT
