@<TRIPOS>MOLECULE
OYO
   27    28     1     0     0
SMALL
No Charge or Current Charge


@<TRIPOS>ATOM
      1 C4          -3.4970   -20.0430    16.8600 c5         1 OYO       0.357300
      2 C5          -5.2150   -19.3500    15.4000 c5         1 OYO       0.165300
      3 C6          -5.4440   -20.5200    14.3900 c3         1 OYO       0.147600
      4 C7          -4.0030   -18.4140    15.0650 c5         1 OYO       0.139300
      5 C8          -2.8180   -19.1500    15.7700 c5         1 OYO       0.071300
      6 C2          -1.9910   -21.2890    15.6360 c5         1 OYO       0.390000
      7 O1          -3.1790   -21.3890    16.4390 os         1 OYO      -0.484000
      8 O2          -4.9220   -19.8320    16.7410 os         1 OYO      -0.424000
      9 O3          -6.7060   -21.1760    14.6250 oh         1 OYO      -0.709000
     10 O4          -4.1830   -17.0860    15.5900 oh         1 OYO      -0.706000
     11 O5          -2.2280   -20.1060    14.8550 os         1 OYO      -0.470000
     12 H1          -3.1320   -19.8360    17.8750 h2         1 OYO       0.100700
     13 H2          -6.1430   -18.7650    15.4310 h1         1 OYO       0.103700
     14 H3          -4.6230   -21.2420    14.4430 h1         1 OYO       0.031700
     15 H4          -5.4340   -20.0990    13.3760 h1         1 OYO       0.031700
     16 H5          -3.8440   -18.3640    13.9780 h1         1 OYO       0.067700
     17 H6          -2.0480   -18.4790    16.1750 h1         1 OYO       0.070700
     18 H7          -1.7770   -23.4370    15.2890 hc         1 OYO       0.052867
     19 H8          -2.7630   -22.6110    14.0710 hc         1 OYO       0.052867
     20 H9          -1.0020   -22.4300    14.0550 hc         1 OYO       0.052867
     21 H10         -0.7770   -20.2950    17.2140 hc         1 OYO       0.052867
     22 H11         -0.5600   -22.0440    17.1190 hc         1 OYO       0.052867
     23 H12          0.1680   -20.9960    15.8970 hc         1 OYO       0.052867
     24 H13         -6.7530   -21.9430    14.0080 ho         1 OYO       0.501000
     25 H14         -3.4640   -16.5240    15.2170 ho         1 OYO       0.507000
     26 C3          -1.8780   -22.5130    14.7090 c3         1 OYO      -0.104600
     27 C1          -0.7220   -21.1400    16.5200 c3         1 OYO      -0.104600
@<TRIPOS>BOND
     1     1     5 1   
     2     1     7 1   
     3     1     8 1   
     4     1    12 1   
     5     2     3 1   
     6     2     4 1   
     7     2     8 1   
     8     2    13 1   
     9     3     9 1   
    10     3    14 1   
    11     3    15 1   
    12     4     5 1   
    13     4    10 1   
    14     4    16 1   
    15     5    11 1   
    16     5    17 1   
    17     6     7 1   
    18     6    11 1   
    19     6    26 1   
    20     6    27 1   
    21     9    24 1   
    22    10    25 1   
    23    18    26 1   
    24    19    26 1   
    25    20    26 1   
    26    21    27 1   
    27    22    27 1   
    28    23    27 1   
@<TRIPOS>SUBSTRUCTURE
     1 OYO         1 TEMP              0 ****  ****    0 ROOT
