@<TRIPOS>MOLECULE
OYP
   59    59     1     0     0
SMALL
No Charge or Current Charge


@<TRIPOS>ATOM
      1 C1          -5.3400     1.8940     0.3840 ca         1 OYP      -0.090000
      2 O1          -7.4370    -4.6300    -0.0660 o          1 OYP      -0.740000
      3 C2          -4.5170     1.9730    -0.7560 ca         1 OYP      -0.125300
      4 O2          -8.1400    -3.7750     1.7810 o          1 OYP      -0.740000
      5 C3          -4.5460     0.9290    -1.7010 ca         1 OYP      -0.090000
      6 O3          -2.3340     2.8930    -0.3560 os         1 OYP      -0.435000
      7 C4          -5.3920    -0.1780    -1.5090 ca         1 OYP      -0.123000
      8 C5          -6.2170    -0.2550    -0.3720 ca         1 OYP      -0.030300
      9 C6          -6.1850     0.7870     0.5740 ca         1 OYP      -0.123000
     10 C7          -7.1320    -1.4560    -0.1640 c3         1 OYP      -0.025100
     11 C8          -6.4400    -2.5920     0.6250 c3         1 OYP      -0.203400
     12 C9          -7.4070    -3.7730     0.8040 c          1 OYP       0.717000
     13 C10         -3.6040     3.1730    -0.9640 c3         1 OYP       0.213900
     14 C11         -1.3730     3.9520    -0.4810 c3         1 OYP       0.249700
     15 C12         -0.1290     3.5370     0.1780 c1         1 OYP      -0.131100
     16 C13          0.9120     3.2050     0.6980 c1         1 OYP      -0.127100
     17 C14          2.1780     2.7770     1.3050 c3         1 OYP       0.013700
     18 C15          3.0330     1.9180     0.3470 c3         1 OYP      -0.074400
     19 C16          4.3690     1.4610     0.9740 c3         1 OYP      -0.075400
     20 C17          5.2240     0.6030     0.0160 c3         1 OYP      -0.074400
     21 C18          6.5600     0.1460     0.6420 c3         1 OYP      -0.074400
     22 C19          7.4150    -0.7110    -0.3160 c3         1 OYP      -0.074400
     23 C20          8.7510    -1.1680     0.3110 c3         1 OYP      -0.074400
     24 C21          9.6060    -2.0260    -0.6470 c3         1 OYP      -0.075400
     25 C22         10.9420    -2.4820    -0.0200 c3         1 OYP      -0.075400
     26 C23         11.7950    -3.3380    -0.9760 c3         1 OYP      -0.088100
     27 H1          -5.3240     2.6920     1.1240 ha         1 OYP       0.097500
     28 H3          -3.9120     0.9750    -2.5830 ha         1 OYP       0.097500
     29 H4          -5.4030    -0.9780    -2.2460 ha         1 OYP       0.114500
     30 H6          -6.8140     0.7380     1.4600 ha         1 OYP       0.114500
     31 H7          -8.0400    -1.1470     0.3690 hc         1 OYP       0.051700
     32 H7A         -7.4680    -1.8430    -1.1340 hc         1 OYP       0.051700
     33 H8          -5.5740    -2.8910     0.0220 hc         1 OYP       0.022200
     34 H8A         -6.1730    -2.1610     1.5980 hc         1 OYP       0.022200
     35 H10         -3.4840     3.3620    -2.0390 h1         1 OYP       0.017700
     36 H10A        -4.0600     4.0640    -0.5120 h1         1 OYP       0.017700
     37 H11         -1.1650     4.1670    -1.5370 h1         1 OYP       0.029700
     38 H11A        -1.7410     4.8700    -0.0050 h1         1 OYP       0.029700
     39 H14          2.7450     3.6660     1.6090 hc         1 OYP       0.053200
     40 H14A         1.9600     2.2060     2.2160 hc         1 OYP       0.053200
     41 H15          2.4580     1.0340     0.0420 hc         1 OYP       0.048200
     42 H15A         3.2430     2.4930    -0.5650 hc         1 OYP       0.048200
     43 H16          4.9450     2.3440     1.2780 hc         1 OYP       0.036200
     44 H16A         4.1610     0.8850     1.8840 hc         1 OYP       0.036200
     45 H17          4.6480    -0.2800    -0.2880 hc         1 OYP       0.039700
     46 H17A         5.4320     1.1790    -0.8950 hc         1 OYP       0.039700
     47 H18          7.1360     1.0300     0.9460 hc         1 OYP       0.036200
     48 H18A         6.3520    -0.4290     1.5530 hc         1 OYP       0.036200
     49 H19          6.8390    -1.5950    -0.6190 hc         1 OYP       0.037700
     50 H19A         7.6230    -0.1360    -1.2260 hc         1 OYP       0.037700
     51 H20          9.3260    -0.2840     0.6150 hc         1 OYP       0.036200
     52 H20A         8.5430    -1.7440     1.2220 hc         1 OYP       0.036200
     53 H21          9.0310    -2.9090    -0.9500 hc         1 OYP       0.037200
     54 H21A         9.8140    -1.4500    -1.5570 hc         1 OYP       0.037200
     55 H22         11.5210    -1.6010     0.2830 hc         1 OYP       0.035700
     56 H22A        10.7380    -3.0600     0.8900 hc         1 OYP       0.035700
     57 H23         11.2560    -4.2460    -1.2700 hc         1 OYP       0.030367
     58 H23A        12.0460    -2.7740    -1.8820 hc         1 OYP       0.030367
     59 H23B        12.7310    -3.6370    -0.4880 hc         1 OYP       0.030367
@<TRIPOS>BOND
     1     1     3 ar  
     2     1     9 ar  
     3     1    27 1   
     4     2    12 1   
     5     3     5 ar  
     6     3    13 1   
     7     4    12 1   
     8     5     7 ar  
     9     5    28 1   
    10     6    13 1   
    11     6    14 1   
    12     7     8 ar  
    13     7    29 1   
    14     8     9 ar  
    15     8    10 1   
    16     9    30 1   
    17    10    11 1   
    18    10    31 1   
    19    10    32 1   
    20    11    12 1   
    21    11    33 1   
    22    11    34 1   
    23    13    35 1   
    24    13    36 1   
    25    14    15 1   
    26    14    37 1   
    27    14    38 1   
    28    15    16 3   
    29    16    17 1   
    30    17    18 1   
    31    17    39 1   
    32    17    40 1   
    33    18    19 1   
    34    18    41 1   
    35    18    42 1   
    36    19    20 1   
    37    19    43 1   
    38    19    44 1   
    39    20    21 1   
    40    20    45 1   
    41    20    46 1   
    42    21    22 1   
    43    21    47 1   
    44    21    48 1   
    45    22    23 1   
    46    22    49 1   
    47    22    50 1   
    48    23    24 1   
    49    23    51 1   
    50    23    52 1   
    51    24    25 1   
    52    24    53 1   
    53    24    54 1   
    54    25    26 1   
    55    25    55 1   
    56    25    56 1   
    57    26    57 1   
    58    26    58 1   
    59    26    59 1   
@<TRIPOS>SUBSTRUCTURE
     1 OYP         1 TEMP              0 ****  ****    0 ROOT
