@<TRIPOS>MOLECULE
OYP
   59    59     1     0     0
SMALL
bcc


@<TRIPOS>ATOM
      1 C1          -5.4470     1.9680     0.3820 ca         1 OYP      -0.108000
      2 O1          -6.5690    -4.6800     1.4030 o          1 OYP      -0.845300
      3 C2          -4.5550     2.0640    -0.6800 ca         1 OYP      -0.125300
      4 O2          -8.3850    -3.7720     0.4860 o          1 OYP      -0.845300
      5 C3          -4.5190     1.0280    -1.6090 ca         1 OYP      -0.108000
      6 O3          -2.3560     2.8300    -0.2920 os         1 OYP      -0.388600
      7 C4          -5.3520    -0.0730    -1.4760 ca         1 OYP      -0.141000
      8 C5          -6.2470    -0.1750    -0.4110 ca         1 OYP      -0.030300
      9 C6          -6.2810     0.8670     0.5130 ca         1 OYP      -0.141000
     10 C7          -7.1040    -1.3970    -0.2350 c3         1 OYP      -0.025100
     11 C8          -6.3810    -2.4720     0.5710 c3         1 OYP      -0.203400
     12 C9          -7.1890    -3.7550     0.8370 c          1 OYP       0.927600
     13 C10         -3.6160     3.2260    -0.8000 c3         1 OYP       0.190700
     14 C11         -1.4080     3.8670    -0.3750 c3         1 OYP       0.226500
     15 C12         -0.1450     3.4120     0.1910 c1         1 OYP      -0.131100
     16 C13          0.9010     3.0500     0.6640 c1         1 OYP      -0.127100
     17 C14          2.1700     2.6050     1.2250 c3         1 OYP       0.013700
     18 C15          3.0130     1.7810     0.2490 c3         1 OYP      -0.074400
     19 C16          4.3330     1.3470     0.8720 c3         1 OYP      -0.075400
     20 C17          5.1950     0.5110    -0.0640 c3         1 OYP      -0.074400
     21 C18          6.5180     0.0920     0.5650 c3         1 OYP      -0.074400
     22 C19          7.3910    -0.7480    -0.3570 c3         1 OYP      -0.074400
     23 C20          8.7140    -1.1570     0.2810 c3         1 OYP      -0.074400
     24 C21          9.5940    -1.9990    -0.6330 c3         1 OYP      -0.075400
     25 C22         10.9170    -2.3990     0.0090 c3         1 OYP      -0.075400
     26 C23         11.7900    -3.2480    -0.9050 c3         1 OYP      -0.088100
     27 H1          -5.4950     2.7640     1.1170 ha         1 OYP       0.115500
     28 H3          -3.8380     1.0820    -2.4510 ha         1 OYP       0.115500
     29 H4          -5.3070    -0.8660    -2.2140 ha         1 OYP       0.132500
     30 H6          -6.9710     0.8190     1.3470 ha         1 OYP       0.132500
     31 H7          -8.0350    -1.1280     0.2670 hc         1 OYP       0.051700
     32 H7A         -7.3830    -1.7970    -1.2120 hc         1 OYP       0.051700
     33 H8          -5.4460    -2.7420     0.0690 hc         1 OYP       0.022200
     34 H8A         -6.0740    -2.0560     1.5380 hc         1 OYP       0.022200
     35 H10         -3.5230     3.5380    -1.8480 h1         1 OYP       0.017700
     36 H10A        -4.0020     4.0890    -0.2400 h1         1 OYP       0.017700
     37 H11         -1.2530     4.1780    -1.4180 h1         1 OYP       0.029700
     38 H11A        -1.7510     4.7610     0.1660 h1         1 OYP       0.029700
     39 H14          2.7380     3.4810     1.5520 hc         1 OYP       0.053200
     40 H14A         1.9750     2.0190     2.1280 hc         1 OYP       0.053200
     41 H15          2.4440     0.9020    -0.0690 hc         1 OYP       0.048200
     42 H15A         3.2030     2.3690    -0.6530 hc         1 OYP       0.048200
     43 H16          4.8920     2.2340     1.1870 hc         1 OYP       0.036200
     44 H16A         4.1310     0.7770     1.7860 hc         1 OYP       0.036200
     45 H17          4.6400    -0.3830    -0.3720 hc         1 OYP       0.039700
     46 H17A         5.3910     1.0760    -0.9820 hc         1 OYP       0.039700
     47 H18          7.0710     0.9880     0.8720 hc         1 OYP       0.036200
     48 H18A         6.3200    -0.4670     1.4860 hc         1 OYP       0.036200
     49 H19          6.8430    -1.6460    -0.6610 hc         1 OYP       0.037700
     50 H19A         7.5900    -0.1910    -1.2790 hc         1 OYP       0.037700
     51 H20          9.2610    -0.2570     0.5840 hc         1 OYP       0.036200
     52 H20A         8.5140    -1.7120     1.2040 hc         1 OYP       0.036200
     53 H21          9.0500    -2.9010    -0.9340 hc         1 OYP       0.037200
     54 H21A         9.7940    -1.4460    -1.5580 hc         1 OYP       0.037200
     55 H22         11.4620    -1.4970     0.3050 hc         1 OYP       0.035700
     56 H22A        10.7170    -2.9460     0.9360 hc         1 OYP       0.035700
     57 H23         11.2840    -4.1750    -1.1820 hc         1 OYP       0.030367
     58 H23A        12.0280    -2.7170    -1.8280 hc         1 OYP       0.030367
     59 H23B        12.7320    -3.5160    -0.4260 hc         1 OYP       0.030367
@<TRIPOS>BOND
     1     1     3 ar  
     2     1     9 ar  
     3     1    27 1   
     4     2    12 1   
     5     3     5 ar  
     6     3    13 1   
     7     4    12 1   
     8     5     7 ar  
     9     5    28 1   
    10     6    13 1   
    11     6    14 1   
    12     7     8 ar  
    13     7    29 1   
    14     8     9 ar  
    15     8    10 1   
    16     9    30 1   
    17    10    11 1   
    18    10    31 1   
    19    10    32 1   
    20    11    12 1   
    21    11    33 1   
    22    11    34 1   
    23    13    35 1   
    24    13    36 1   
    25    14    15 1   
    26    14    37 1   
    27    14    38 1   
    28    15    16 3   
    29    16    17 1   
    30    17    18 1   
    31    17    39 1   
    32    17    40 1   
    33    18    19 1   
    34    18    41 1   
    35    18    42 1   
    36    19    20 1   
    37    19    43 1   
    38    19    44 1   
    39    20    21 1   
    40    20    45 1   
    41    20    46 1   
    42    21    22 1   
    43    21    47 1   
    44    21    48 1   
    45    22    23 1   
    46    22    49 1   
    47    22    50 1   
    48    23    24 1   
    49    23    51 1   
    50    23    52 1   
    51    24    25 1   
    52    24    53 1   
    53    24    54 1   
    54    25    26 1   
    55    25    55 1   
    56    25    56 1   
    57    26    57 1   
    58    26    58 1   
    59    26    59 1   
@<TRIPOS>SUBSTRUCTURE
     1 OYP         1 TEMP              0 ****  ****    0 ROOT
