@<TRIPOS>MOLECULE
OYQ
   39    39     1     0     0
SMALL
No Charge or Current Charge


@<TRIPOS>ATOM
      1 CAA          7.7790    -0.0480     1.4110 c3         1 OYQ      -0.088100
      2 CAB          6.4430    -0.4790    -1.4140 c3         1 OYQ      -0.088100
      3 NAC         -5.6190    -0.3710    -0.7880 n8         1 OYQ      -1.004100
      4 OAD          1.6590     1.1810    -1.9310 o          1 OYQ      -0.562100
      5 OAE         -5.3090     1.6530     0.5800 o          1 OYQ      -0.547000
      6 OAF         -5.3730    -0.6980     1.6150 o          1 OYQ      -0.547000
      7 CAG         -1.1320     0.8630    -0.7390 ca         1 OYQ      -0.182000
      8 CAH         -1.1560    -1.2770     0.4030 ca         1 OYQ      -0.182000
      9 CAI         -2.5020     1.0220    -0.4710 ca         1 OYQ       0.024000
     10 CAJ         -2.5260    -1.1260     0.6750 ca         1 OYQ       0.024000
     11 CAK          6.4610     0.5970     0.9290 c3         1 OYQ      -0.073400
     12 CAM          4.2630     0.4040    -0.3560 c3         1 OYQ      -0.064400
     13 NAN          0.9380    -0.5190    -0.5370 ns         1 OYQ      -0.153000
     14 CAO          1.8910     0.1770    -1.2690 c          1 OYQ       0.608100
     15 CAP         -0.4450    -0.2920    -0.3070 ca         1 OYQ       0.043000
     16 CAQ         -3.2040     0.0270     0.2350 ca         1 OYQ      -0.314500
     17 CAR          5.6530    -0.2460    -0.0990 c3         1 OYQ      -0.060700
     18 SAS         -4.9500     0.2350     0.5740 sy         1 OYQ       1.133600
     19 HAA          7.6000    -1.0600     1.7940 hc         1 OYQ       0.032700
     20 HAAA         8.5150    -0.1050     0.6010 hc         1 OYQ       0.032700
     21 HAB          5.8860    -1.1230    -2.1040 hc         1 OYQ       0.033033
     22 HABA         6.6480     0.4720    -1.9200 hc         1 OYQ       0.033033
     23 HABB         7.3990    -0.9780    -1.2200 hc         1 OYQ       0.033033
     24 HNAC        -6.2630    -1.0540    -0.3960 hn         1 OYQ       0.472000
     25 HNAA        -4.8620    -0.9360    -1.1640 hn         1 OYQ       0.472000
     26 HAG         -0.6230     1.6540    -1.2800 ha         1 OYQ       0.134000
     27 HAH         -0.6440    -2.1720     0.7500 ha         1 OYQ       0.134000
     28 HAI         -3.0130     1.9210    -0.8160 ha         1 OYQ       0.137500
     29 HAJ         -3.0500    -1.9050     1.2280 ha         1 OYQ       0.137500
     30 HAK          5.8340     0.7750     1.8120 hc         1 OYQ       0.040200
     31 HAL          3.6800    -0.4840    -2.2500 hc         1 OYQ       0.060700
     32 HALA         3.2440    -1.4540    -0.8040 hc         1 OYQ       0.060700
     33 HAM          4.4030     1.3880    -0.8240 hc         1 OYQ       0.057200
     34 HAMA         3.7800     0.5880     0.6120 hc         1 OYQ       0.057200
     35 HNAN         1.2970    -1.3420    -0.0720 hn         1 OYQ       0.152000
     36 HAR          5.4740    -1.2290     0.3550 hc         1 OYQ       0.041700
     37 H19          8.2180     0.5490     2.2190 hc         1 OYQ       0.032700
     38 H20          6.6820     1.5830     0.5010 hc         1 OYQ       0.040200
     39 CAL          3.2950    -0.4420    -1.2250 c3         1 OYQ      -0.158400
@<TRIPOS>BOND
     1     1    11 1   
     2     1    19 1   
     3     1    20 1   
     4     1    37 1   
     5     2    17 1   
     6     2    21 1   
     7     2    22 1   
     8     2    23 1   
     9     3    18 1   
    10     3    24 1   
    11     3    25 1   
    12     4    14 2   
    13     5    18 2   
    14     6    18 2   
    15     7     9 ar  
    16     7    15 ar  
    17     7    26 1   
    18     8    10 ar  
    19     8    15 ar  
    20     8    27 1   
    21     9    16 ar  
    22     9    28 1   
    23    10    16 ar  
    24    10    29 1   
    25    11    17 1   
    26    11    30 1   
    27    11    38 1   
    28    12    17 1   
    29    12    33 1   
    30    12    34 1   
    31    12    39 1   
    32    13    14 1   
    33    13    15 1   
    34    13    35 1   
    35    14    39 1   
    36    16    18 1   
    37    17    36 1   
    38    31    39 1   
    39    32    39 1   
@<TRIPOS>SUBSTRUCTURE
     1 OYQ         1 TEMP              0 ****  ****    0 ROOT
