@<TRIPOS>MOLECULE
OYQ
   39    39     1     0     0
SMALL
bcc


@<TRIPOS>ATOM
      1 CAA          8.1840     0.3870     0.6700 c3         1 OYQ      -0.088100
      2 CAB          6.1510    -0.7760    -1.3280 c3         1 OYQ      -0.088100
      3 NAC         -5.4110     0.2180    -1.4300 n8         1 OYQ      -0.893700
      4 OAD          1.6850     1.3190    -0.5830 o          1 OYQ      -0.562100
      5 OAE         -5.3820     1.0910     0.8900 o          1 OYQ      -0.617800
      6 OAF         -5.5980    -1.3810     0.6070 o          1 OYQ      -0.617800
      7 CAG         -1.1340     0.7220    -0.2620 ca         1 OYQ      -0.200000
      8 CAH         -1.3200    -1.6140     0.3080 ca         1 OYQ      -0.200000
      9 CAI         -2.5120     0.8220    -0.2310 ca         1 OYQ       0.006000
     10 CAJ         -2.6960    -1.5120     0.3360 ca         1 OYQ       0.006000
     11 CAK          6.7840     0.9330     0.4250 c3         1 OYQ      -0.073400
     12 CAM          4.3700     0.5340    -0.1010 c3         1 OYQ      -0.064400
     13 NAN          0.8540    -0.7100     0.0220 ns         1 OYQ      -0.479100
     14 CAO          1.8670     0.1590    -0.2720 c          1 OYQ       0.675100
     15 CAP         -0.5190    -0.5060     0.0130 ca         1 OYQ       0.135600
     16 CAQ         -3.2920    -0.2880     0.0640 ca         1 OYQ      -0.314500
     17 CAR          5.7550    -0.1140    -0.0120 c3         1 OYQ      -0.060700
     18 SAS         -5.0440    -0.1150     0.1460 sy         1 OYQ       1.275200
     19 HAA          8.1630    -0.4450     1.3770 hc         1 OYQ       0.032700
     20 HAAA         8.6560     0.0300    -0.2450 hc         1 OYQ       0.032700
     21 HAB          5.4290    -1.5310    -1.6440 hc         1 OYQ       0.033033
     22 HABA         6.2220    -0.0320    -2.1260 hc         1 OYQ       0.033033
     23 HABB         7.1170    -1.2760    -1.2560 hc         1 OYQ       0.033033
     24 HNAC        -6.3420     0.6150    -1.5190 hn         1 OYQ       0.416800
     25 HNAA        -5.3120    -0.5890    -2.0360 hn         1 OYQ       0.416800
     26 HAG         -0.5510     1.5970    -0.4930 ha         1 OYQ       0.152000
     27 HAH         -0.8580    -2.5700     0.5250 ha         1 OYQ       0.152000
     28 HAI         -2.9690     1.7790    -0.4450 ha         1 OYQ       0.155500
     29 HAJ         -3.2890    -2.3850     0.5700 ha         1 OYQ       0.155500
     30 HAK          6.4250     1.4050     1.3450 hc         1 OYQ       0.040200
     31 HAL          3.3440    -1.1040    -1.0900 hc         1 OYQ       0.060700
     32 HALA         3.2780    -1.1630     0.6520 hc         1 OYQ       0.060700
     33 HAM          4.3460     1.2120    -0.9590 hc         1 OYQ       0.057200
     34 HAMA         4.2130     1.1560     0.7860 hc         1 OYQ       0.057200
     35 HNAN         1.1390    -1.6440     0.2750 hn         1 OYQ       0.318500
     36 HAR          5.7200    -0.8870     0.7670 hc         1 OYQ       0.041700
     37 H19          8.8330     1.1570     1.0880 hc         1 OYQ       0.032700
     38 H20          6.8260     1.7300    -0.3270 hc         1 OYQ       0.040200
     39 CAL          3.2370    -0.4760    -0.1990 c3         1 OYQ      -0.158400
@<TRIPOS>BOND
     1     1    11 1   
     2     1    19 1   
     3     1    20 1   
     4     1    37 1   
     5     2    17 1   
     6     2    21 1   
     7     2    22 1   
     8     2    23 1   
     9     3    18 1   
    10     3    24 1   
    11     3    25 1   
    12     4    14 2   
    13     5    18 2   
    14     6    18 2   
    15     7     9 ar  
    16     7    15 ar  
    17     7    26 1   
    18     8    10 ar  
    19     8    15 ar  
    20     8    27 1   
    21     9    16 ar  
    22     9    28 1   
    23    10    16 ar  
    24    10    29 1   
    25    11    17 1   
    26    11    30 1   
    27    11    38 1   
    28    12    17 1   
    29    12    33 1   
    30    12    34 1   
    31    12    39 1   
    32    13    14 1   
    33    13    15 1   
    34    13    35 1   
    35    14    39 1   
    36    16    18 1   
    37    17    36 1   
    38    31    39 1   
    39    32    39 1   
@<TRIPOS>SUBSTRUCTURE
     1 OYQ         1 TEMP              0 ****  ****    0 ROOT
