@<TRIPOS>MOLECULE
OYR
   80    86     1     0     0
SMALL
abcg2


@<TRIPOS>ATOM
      1 C10          4.7290   -18.1550   -31.1830 cc         1 OYR       0.088400
      2 C13          4.9090   -15.1120   -28.9650 ca         1 OYR      -0.114000
      3 C15          4.0880   -14.6460   -26.6260 c3         1 OYR      -0.059100
      4 C20          3.9030   -10.3060   -26.4590 ca         1 OYR      -0.106000
      5 C21          3.6960    -9.2750   -25.5560 ca         1 OYR      -0.085500
      6 C22          2.4100    -8.9520   -25.1250 cp         1 OYR      -0.165500
      7 C24          0.9850    -7.1620   -24.0850 ca         1 OYR      -0.157000
      8 C26          1.9430    -5.7720   -22.3970 ca         1 OYR      -0.180000
      9 C04          8.1680   -14.3620   -34.2470 ca         1 OYR      -0.116600
     10 C05          8.2840   -15.6760   -33.8040 ca         1 OYR      -0.091000
     11 C06          7.1860   -16.4480   -33.4540 ca         1 OYR      -0.216000
     12 C07          5.9100   -15.8940   -33.5350 ca         1 OYR       0.210000
     13 C09          4.8170   -17.8180   -32.5200 cd         1 OYR       0.105900
     14 C11          4.5810   -17.2520   -30.0400 ca         1 OYR      -0.006800
     15 C12          5.0590   -15.9420   -30.0660 ca         1 OYR      -0.086000
     16 C14          4.2790   -15.5540   -27.8060 ca         1 OYR      -0.087300
     17 C16          2.6980   -14.0100   -26.5790 c3         1 OYR       0.158600
     18 C19          2.8370   -11.0430   -26.9620 ca         1 OYR      -0.095300
     19 C23          2.2030    -7.8370   -24.1750 cp         1 OYR       0.425500
     20 C25          0.8560    -6.1200   -23.1830 ca         1 OYR      -0.076000
     21 C27          3.1180    -6.4900   -22.5630 ca         1 OYR       0.342900
     22 C29          1.3430    -9.7080   -25.6150 ca         1 OYR      -0.085500
     23 C30          1.5540   -10.7350   -26.5180 ca         1 OYR      -0.106000
     24 C31          3.8100   -16.8660   -27.7800 ca         1 OYR      -0.114000
     25 C32          3.9600   -17.7030   -28.8730 ca         1 OYR      -0.086000
     26 C34          4.8870   -20.0150   -32.2290 cd         1 OYR      -0.098000
     27 C35          5.0020   -21.3540   -32.6440 cd         1 OYR      -0.070000
     28 C36          5.1300   -21.6510   -33.9770 cc         1 OYR      -0.046000
     29 C37          5.2600   -23.0450   -34.4420 ca         1 OYR      -0.008000
     30 C38          4.5820   -24.0820   -33.7980 ca         1 OYR      -0.101500
     31 C39          4.7150   -25.3930   -34.2280 ca         1 OYR      -0.116500
     32 C40          5.5260   -25.6940   -35.3150 ca         1 OYR      -0.124000
     33 C41          6.2020   -24.6710   -35.9670 ca         1 OYR      -0.116500
     34 C42          6.0700   -23.3600   -35.5360 ca         1 OYR      -0.101500
     35 C43          5.1390   -20.5790   -34.9180 cc         1 OYR      -0.178000
     36 C44          5.0330   -19.2900   -34.5130 cd         1 OYR      -0.056000
     37 C46          5.7790   -14.5750   -33.9700 ca         1 OYR      -0.171000
     38 C47          6.8830   -13.8040   -34.3160 ca         1 OYR      -0.053600
     39 C48          6.6190   -12.3450   -34.6600 c          1 OYR       0.747600
     40 N08          4.7680   -16.6220   -33.2090 nu         1 OYR      -0.853000
     41 N28          3.2480    -7.4910   -23.4220 nb         1 OYR      -0.672000
     42 N33          4.7610   -19.5020   -31.0190 nc         1 OYR      -0.301600
     43 N45          4.9170   -19.0220   -33.1840 na         1 OYR       0.124100
     44 O01         10.4820   -13.9130   -34.1150 o          1 OYR      -0.729500
     45 O03          9.2780   -12.8040   -35.6300 o          1 OYR      -0.729500
     46 O17          2.3420   -13.3030   -27.7450 os         1 OYR      -0.439000
     47 O49          5.9490   -12.1270   -35.6880 o          1 OYR      -0.733500
     48 O50          7.0360   -11.5150   -33.8320 o          1 OYR      -0.733500
     49 H1           5.3080   -14.1050   -29.0100 ha         1 OYR       0.103500
     50 H2           4.2060   -15.2080   -25.6960 hc         1 OYR       0.044200
     51 H3           4.8620   -13.8750   -26.6130 hc         1 OYR       0.044200
     52 H6           0.1530    -7.4280   -24.7230 ha         1 OYR       0.125000
     53 H7           1.8890    -4.9640   -21.6800 ha         1 OYR       0.115000
     54 H8           9.2680   -16.1220   -33.7350 ha         1 OYR       0.104000
     55 H9           7.3300   -17.4690   -33.1190 ha         1 OYR       0.072000
     56 H10          5.5780   -15.5630   -30.9360 ha         1 OYR       0.138000
     57 H11          2.6310   -13.3710   -25.6890 h1         1 OYR       0.037200
     58 H12          1.9460   -14.7940   -26.4670 h1         1 OYR       0.037200
     59 H15         -0.0800    -5.5830   -23.1030 ha         1 OYR       0.111000
     60 H16          3.9950    -6.2460   -21.9740 h4         1 OYR       0.013100
     61 H17          0.3320    -9.5110   -25.2810 ha         1 OYR       0.115500
     62 H18          0.7060   -11.3050   -26.8770 ha         1 OYR       0.124000
     63 H19          3.3230   -17.2420   -26.8880 ha         1 OYR       0.103500
     64 H20          3.5890   -18.7190   -28.8240 ha         1 OYR       0.138000
     65 H21          5.0070   -22.1220   -31.8810 ha         1 OYR       0.127000
     66 H22          3.9260   -23.8630   -32.9640 ha         1 OYR       0.119500
     67 H23          4.1760   -26.1810   -33.7190 ha         1 OYR       0.103500
     68 H24          5.6290   -26.7170   -35.6520 ha         1 OYR       0.100000
     69 H25          6.8400   -24.8940   -36.8120 ha         1 OYR       0.103500
     70 H26          6.6220   -22.5800   -36.0450 ha         1 OYR       0.119500
     71 H27          5.2090   -20.7770   -35.9780 ha         1 OYR       0.122000
     72 H28          5.0240   -18.4450   -35.1850 h4         1 OYR       0.177000
     73 H29          4.7860   -14.1400   -34.0220 ha         1 OYR       0.091000
     74 H30          3.9140   -16.0900   -33.1260 hn         1 OYR       0.484000
     75 C18          3.0670   -12.1240   -27.9870 c3         1 OYR       0.190900
     76 H4           4.9130   -10.5360   -26.7790 ha         1 OYR       0.124000
     77 H13          4.1440   -12.3100   -28.0780 h1         1 OYR       0.070200
     78 H14          2.7320   -11.7700   -28.9660 h1         1 OYR       0.070200
     79 C02          9.4160   -13.6200   -34.6970 c          1 OYR       0.721600
     80 H5           4.5420    -8.7110   -25.1840 ha         1 OYR       0.115500
@<TRIPOS>BOND
     1     1    13 2   
     2     1    14 1   
     3     1    42 1   
     4     2    15 ar  
     5     2    16 ar  
     6     2    49 1   
     7     3    16 1   
     8     3    17 1   
     9     3    50 1   
    10     3    51 1   
    11     4     5 ar  
    12     4    18 ar  
    13     4    76 1   
    14     5     6 ar  
    15     5    80 1   
    16     6    19 1   
    17     6    22 ar  
    18     7    19 ar  
    19     7    20 ar  
    20     7    52 1   
    21     8    20 ar  
    22     8    21 ar  
    23     8    53 1   
    24     9    10 ar  
    25     9    38 ar  
    26     9    79 1   
    27    10    11 ar  
    28    10    54 1   
    29    11    12 ar  
    30    11    55 1   
    31    12    37 ar  
    32    12    40 1   
    33    13    40 1   
    34    13    43 1   
    35    14    15 ar  
    36    14    25 ar  
    37    15    56 1   
    38    16    24 ar  
    39    17    46 1   
    40    17    57 1   
    41    17    58 1   
    42    18    23 ar  
    43    18    75 1   
    44    19    41 ar  
    45    20    59 1   
    46    21    41 ar  
    47    21    60 1   
    48    22    23 ar  
    49    22    61 1   
    50    23    62 1   
    51    24    25 ar  
    52    24    63 1   
    53    25    64 1   
    54    26    27 1   
    55    26    42 2   
    56    26    43 1   
    57    27    28 2   
    58    27    65 1   
    59    28    29 1   
    60    28    35 1   
    61    29    30 ar  
    62    29    34 ar  
    63    30    31 ar  
    64    30    66 1   
    65    31    32 ar  
    66    31    67 1   
    67    32    33 ar  
    68    32    68 1   
    69    33    34 ar  
    70    33    69 1   
    71    34    70 1   
    72    35    36 2   
    73    35    71 1   
    74    36    43 1   
    75    36    72 1   
    76    37    38 ar  
    77    37    73 1   
    78    38    39 1   
    79    39    47 1   
    80    39    48 1   
    81    40    74 1   
    82    44    79 1   
    83    45    79 1   
    84    46    75 1   
    85    75    77 1   
    86    75    78 1   
@<TRIPOS>SUBSTRUCTURE
     1 OYR         1 TEMP              0 ****  ****    0 ROOT
