@<TRIPOS>MOLECULE
OYR
   80    86     1     0     0
SMALL
No Charge or Current Charge


@<TRIPOS>ATOM
      1 C10          4.8740   -18.1440   -30.8940 cc         1 OYR       0.088400
      2 C13          5.1110   -15.2540   -28.4400 ca         1 OYR      -0.114000
      3 C15          3.7430   -14.6190   -26.3870 c3         1 OYR      -0.059100
      4 C20          3.7760   -10.6850   -26.0470 ca         1 OYR      -0.106000
      5 C21          3.5630    -9.6800   -25.0880 ca         1 OYR      -0.085500
      6 C22          2.3210    -8.9950   -24.9930 cp         1 OYR      -0.165500
      7 C24          1.1120    -6.9030   -24.1270 ca         1 OYR      -0.157000
      8 C26          1.7670    -5.9780   -22.0070 ca         1 OYR      -0.180000
      9 C04          8.1690   -14.6110   -35.2970 ca         1 OYR      -0.116600
     10 C05          8.4470   -15.8740   -34.7330 ca         1 OYR      -0.091000
     11 C06          7.5350   -16.4800   -33.8540 ca         1 OYR      -0.216000
     12 C07          6.3280   -15.8410   -33.5340 ca         1 OYR       0.210000
     13 C09          5.2700   -17.7060   -32.1490 cd         1 OYR       0.105900
     14 C11          4.5730   -17.2240   -29.7890 ca         1 OYR      -0.006800
     15 C12          5.3830   -16.0970   -29.5320 ca         1 OYR      -0.086000
     16 C14          4.0370   -15.5310   -27.5750 ca         1 OYR      -0.087300
     17 C16          2.3420   -13.9580   -26.4340 c3         1 OYR       0.158600
     18 C19          2.7520   -11.0430   -26.9420 ca         1 OYR      -0.095300
     19 C23          2.0940    -7.9150   -23.9650 cp         1 OYR       0.425500
     20 C25          0.9410    -5.9220   -23.1380 ca         1 OYR      -0.076000
     21 C27          2.7260    -7.0000   -21.9120 ca         1 OYR       0.342900
     22 C29          1.2990    -9.3770   -25.9050 ca         1 OYR      -0.085500
     23 C30          1.5130   -10.3830   -26.8630 ca         1 OYR      -0.106000
     24 C31          3.2520   -16.6760   -27.8040 ca         1 OYR      -0.114000
     25 C32          3.5240   -17.5200   -28.8950 ca         1 OYR      -0.086000
     26 C34          5.0380   -19.9560   -32.0200 cd         1 OYR      -0.098000
     27 C35          5.0080   -21.3050   -32.4800 cd         1 OYR      -0.070000
     28 C36          5.2660   -21.5080   -33.8310 cc         1 OYR      -0.046000
     29 C37          5.3170   -22.9080   -34.3220 ca         1 OYR      -0.008000
     30 C38          4.6670   -23.9750   -33.6500 ca         1 OYR      -0.101500
     31 C39          4.7300   -25.2900   -34.1430 ca         1 OYR      -0.116500
     32 C40          5.4410   -25.5710   -35.3170 ca         1 OYR      -0.124000
     33 C41          6.0860   -24.5330   -36.0010 ca         1 OYR      -0.116500
     34 C42          6.0220   -23.2160   -35.5120 ca         1 OYR      -0.101500
     35 C43          5.5420   -20.3500   -34.6670 cc         1 OYR      -0.178000
     36 C44          5.5510   -19.0360   -34.2100 cd         1 OYR      -0.056000
     37 C46          6.0550   -14.5750   -34.0710 ca         1 OYR      -0.171000
     38 C47          6.9640   -13.9450   -34.9530 ca         1 OYR      -0.053600
     39 C48          6.6480   -12.5610   -35.4870 c          1 OYR       0.747600
     40 N08          5.4130   -16.4170   -32.6530 nu         1 OYR      -0.853000
     41 N28          2.8880    -7.9420   -22.8670 nb         1 OYR      -0.672000
     42 N33          4.7370   -19.5150   -30.8100 nc         1 OYR      -0.301600
     43 N45          5.3950   -18.9050   -32.8290 na         1 OYR       0.124100
     44 O01         10.3260   -13.9400   -35.9450 o          1 OYR      -0.729500
     45 O03          8.7450   -13.7070   -37.3890 o          1 OYR      -0.729500
     46 O17          2.1330   -13.2780   -27.6950 os         1 OYR      -0.439000
     47 O49          5.5620   -12.3820   -36.0250 o          1 OYR      -0.733500
     48 O50          7.4360   -11.6540   -35.2520 o          1 OYR      -0.733500
     49 H1           5.7450   -14.3870   -28.2650 ha         1 OYR       0.103500
     50 H2           3.8090   -15.2030   -25.4610 hc         1 OYR       0.044200
     51 H3           4.5100   -13.8410   -26.2910 hc         1 OYR       0.044200
     52 H6           0.4960    -6.8700   -25.0190 ha         1 OYR       0.125000
     53 H7           1.6760    -5.2420   -21.2130 ha         1 OYR       0.115000
     54 H8           9.3730   -16.3870   -34.9840 ha         1 OYR       0.104000
     55 H9           7.7790   -17.4460   -33.4210 ha         1 OYR       0.072000
     56 H10          6.2360   -15.8780   -30.1690 ha         1 OYR       0.138000
     57 H11          2.2320   -13.2680   -25.5880 h1         1 OYR       0.037200
     58 H12          1.5820   -14.7410   -26.3130 h1         1 OYR       0.037200
     59 H15          0.1930    -5.1390   -23.2480 ha         1 OYR       0.111000
     60 H16          3.3840    -7.0660   -21.0470 h4         1 OYR       0.013100
     61 H17          0.3210    -8.9060   -25.8660 ha         1 OYR       0.115500
     62 H18          0.7090   -10.6560   -27.5430 ha         1 OYR       0.124000
     63 H19          2.4300   -16.9180   -27.1340 ha         1 OYR       0.103500
     64 H20          2.9090   -18.4020   -29.0530 ha         1 OYR       0.138000
     65 H21          4.7970   -22.1030   -31.7790 ha         1 OYR       0.127000
     66 H22          4.0730   -23.8040   -32.7580 ha         1 OYR       0.119500
     67 H23          4.2190   -26.0920   -33.6150 ha         1 OYR       0.103500
     68 H24          5.4900   -26.5900   -35.6970 ha         1 OYR       0.100000
     69 H25          6.6420   -24.7460   -36.9120 ha         1 OYR       0.103500
     70 H26          6.5560   -22.4460   -36.0580 ha         1 OYR       0.119500
     71 H27          5.7040   -20.5070   -35.7260 ha         1 OYR       0.122000
     72 H28          5.6960   -18.1500   -34.8130 h4         1 OYR       0.177000
     73 H29          5.1320   -14.0650   -33.8060 ha         1 OYR       0.091000
     74 H30          4.7910   -15.7380   -32.2090 hn         1 OYR       0.484000
     75 C18          2.9760   -12.1380   -27.9820 c3         1 OYR       0.190900
     76 H4           4.7410   -11.1850   -26.0910 ha         1 OYR       0.124000
     77 H13          4.0360   -12.4230   -28.0120 h1         1 OYR       0.070200
     78 H14          2.7300   -11.7340   -28.9730 h1         1 OYR       0.070200
     79 C02          9.1490   -14.0020   -36.2720 c          1 OYR       0.721600
     80 H5           4.3800    -9.4260   -24.4150 ha         1 OYR       0.115500
@<TRIPOS>BOND
     1     1    13 2   
     2     1    14 1   
     3     1    42 1   
     4     2    15 ar  
     5     2    16 ar  
     6     2    49 1   
     7     3    16 1   
     8     3    17 1   
     9     3    50 1   
    10     3    51 1   
    11     4     5 ar  
    12     4    18 ar  
    13     4    76 1   
    14     5     6 ar  
    15     5    80 1   
    16     6    19 1   
    17     6    22 ar  
    18     7    19 ar  
    19     7    20 ar  
    20     7    52 1   
    21     8    20 ar  
    22     8    21 ar  
    23     8    53 1   
    24     9    10 ar  
    25     9    38 ar  
    26     9    79 1   
    27    10    11 ar  
    28    10    54 1   
    29    11    12 ar  
    30    11    55 1   
    31    12    37 ar  
    32    12    40 1   
    33    13    40 1   
    34    13    43 1   
    35    14    15 ar  
    36    14    25 ar  
    37    15    56 1   
    38    16    24 ar  
    39    17    46 1   
    40    17    57 1   
    41    17    58 1   
    42    18    23 ar  
    43    18    75 1   
    44    19    41 ar  
    45    20    59 1   
    46    21    41 ar  
    47    21    60 1   
    48    22    23 ar  
    49    22    61 1   
    50    23    62 1   
    51    24    25 ar  
    52    24    63 1   
    53    25    64 1   
    54    26    27 1   
    55    26    42 2   
    56    26    43 1   
    57    27    28 2   
    58    27    65 1   
    59    28    29 1   
    60    28    35 1   
    61    29    30 ar  
    62    29    34 ar  
    63    30    31 ar  
    64    30    66 1   
    65    31    32 ar  
    66    31    67 1   
    67    32    33 ar  
    68    32    68 1   
    69    33    34 ar  
    70    33    69 1   
    71    34    70 1   
    72    35    36 2   
    73    35    71 1   
    74    36    43 1   
    75    36    72 1   
    76    37    38 ar  
    77    37    73 1   
    78    38    39 1   
    79    39    47 1   
    80    39    48 1   
    81    40    74 1   
    82    44    79 1   
    83    45    79 1   
    84    46    75 1   
    85    75    77 1   
    86    75    78 1   
@<TRIPOS>SUBSTRUCTURE
     1 OYR         1 TEMP              0 ****  ****    0 ROOT
