@<TRIPOS>MOLECULE
OYS
   34    35     1     0     0
SMALL
No Charge or Current Charge


@<TRIPOS>ATOM
      1 NAA         -4.7240    -1.1710     1.7830 n8         1 OYS      -1.004100
      2 OAB          1.7510    -0.2150    -2.1040 o          1 OYS      -0.548100
      3 OAC         -5.4450    -0.6950    -0.4970 o          1 OYS      -0.546500
      4 OAD         -5.4600     1.1310     1.3120 o          1 OYS      -0.546500
      5 CAE          6.0180    -1.1510     1.1470 ca         1 OYS      -0.101000
      6 CAF          5.9470    -1.2950    -0.2490 ca         1 OYS      -0.108000
      7 CAG          5.2170    -0.1960     1.7940 ca         1 OYS      -0.108000
      8 CAH          5.0770    -0.4830    -0.9970 ca         1 OYS      -0.091000
      9 CAI          4.3460     0.6170     1.0470 ca         1 OYS      -0.091000
     10 CAJ         -1.0920    -0.0720    -1.0070 ca         1 OYS      -0.181500
     11 CAK         -1.0540     1.5230     0.8200 ca         1 OYS      -0.181500
     12 CAL         -2.4470    -0.3400    -0.7480 ca         1 OYS       0.023500
     13 CAM         -2.4090     1.2610     1.0860 ca         1 OYS       0.023500
     14 CAN          3.3230     1.3550    -1.1650 c3         1 OYS      -0.113100
     15 CAP          1.9480     0.6880    -1.2990 c          1 OYS       0.606100
     16 CAQ          4.2720     0.4780    -0.3540 ca         1 OYS      -0.077300
     17 CAR         -0.3810     0.8620    -0.2230 ca         1 OYS       0.042000
     18 CAS         -3.1100     0.3260     0.3020 ca         1 OYS      -0.313500
     19 SAT         -4.8360    -0.0080     0.6390 sy         1 OYS       1.132600
     20 HNAA        -3.7770    -1.5150     1.6440 hn         1 OYS       0.471500
     21 HNAB        -5.3100    -1.8960     1.3760 hn         1 OYS       0.471500
     22 HAF          6.5650    -2.0360    -0.7510 ha         1 OYS       0.114500
     23 HAG          5.2700    -0.0840     2.8750 ha         1 OYS       0.114500
     24 HAH          5.0270    -0.6040    -2.0770 ha         1 OYS       0.110500
     25 HAI          3.7300     1.3530     1.5580 ha         1 OYS       0.110500
     26 HAJ         -0.6170    -0.6000    -1.8270 ha         1 OYS       0.134000
     27 HAK         -0.5260     2.2480     1.4360 ha         1 OYS       0.134000
     28 HAL         -2.9750    -1.0630    -1.3690 ha         1 OYS       0.137500
     29 HAM         -2.9060     1.7850     1.9020 ha         1 OYS       0.137500
     30 HAN          3.7350     1.5120    -2.1680 hc         1 OYS       0.067200
     31 HANA         3.2170     2.3240    -0.6630 hc         1 OYS       0.067200
     32 NAO          0.9880     1.1850    -0.4270 ns         1 OYS      -0.154000
     33 HAE          6.6910    -1.7800     1.7260 ha         1 OYS       0.114000
     34 HNAO         1.3260     1.9190     0.1820 hn         1 OYS       0.152000
@<TRIPOS>BOND
     1     1    19 1   
     2     1    20 1   
     3     1    21 1   
     4     2    15 2   
     5     3    19 2   
     6     4    19 2   
     7     5     6 ar  
     8     5     7 ar  
     9     5    33 1   
    10     6     8 ar  
    11     6    22 1   
    12     7     9 ar  
    13     7    23 1   
    14     8    16 ar  
    15     8    24 1   
    16     9    16 ar  
    17     9    25 1   
    18    10    12 ar  
    19    10    17 ar  
    20    10    26 1   
    21    11    13 ar  
    22    11    17 ar  
    23    11    27 1   
    24    12    18 ar  
    25    12    28 1   
    26    13    18 ar  
    27    13    29 1   
    28    14    15 1   
    29    14    16 1   
    30    14    30 1   
    31    14    31 1   
    32    15    32 1   
    33    17    32 1   
    34    18    19 1   
    35    32    34 1   
@<TRIPOS>SUBSTRUCTURE
     1 OYS         1 TEMP              0 ****  ****    0 ROOT
