@<TRIPOS>MOLECULE
OYS
   34    35     1     0     0
SMALL
bcc


@<TRIPOS>ATOM
      1 NAA         -5.3910    -0.0150     1.5450 n8         1 OYS      -0.893700
      2 OAB          1.9410    -0.7920    -0.2560 o          1 OYS      -0.548100
      3 OAC         -5.1270    -1.5470    -0.5330 o          1 OYS      -0.617300
      4 OAD         -5.6550     0.8880    -0.7480 o          1 OYS      -0.617300
      5 CAE          6.7490    -1.1790     0.0550 ca         1 OYS      -0.119000
      6 CAF          6.1970    -0.7920    -1.1590 ca         1 OYS      -0.126000
      7 CAG          6.1500    -0.7730     1.2410 ca         1 OYS      -0.126000
      8 CAH          5.0530    -0.0060    -1.1850 ca         1 OYS      -0.109000
      9 CAI          5.0060     0.0120     1.2100 ca         1 OYS      -0.109000
     10 CAJ         -0.9530    -0.5570    -0.1330 ca         1 OYS      -0.199500
     11 CAK         -1.4780     1.7670     0.2490 ca         1 OYS      -0.199500
     12 CAL         -2.3090    -0.8420    -0.1570 ca         1 OYS       0.005500
     13 CAM         -2.8240     1.4800     0.2270 ca         1 OYS       0.005500
     14 CAN          3.2050     1.2440    -0.0320 c3         1 OYS      -0.113100
     15 CAP          1.9380     0.4070    -0.0730 c          1 OYS       0.673100
     16 CAQ          4.4460     0.4050    -0.0020 ca         1 OYS      -0.077300
     17 CAR         -0.5230     0.7570     0.0680 ca         1 OYS       0.134600
     18 CAS         -3.2400     0.1680     0.0220 ca         1 OYS      -0.313500
     19 SAT         -4.9650    -0.1840    -0.0430 sy         1 OYS       1.274200
     20 HNAA        -5.0620    -0.7810     2.1240 hn         1 OYS       0.416300
     21 HNAB        -6.3960     0.0960     1.6490 hn         1 OYS       0.416300
     22 HAF          6.6600    -1.0980    -2.0890 ha         1 OYS       0.132500
     23 HAG          6.5770    -1.0640     2.1920 ha         1 OYS       0.132500
     24 HAH          4.6310     0.2940    -2.1370 ha         1 OYS       0.128500
     25 HAI          4.5470     0.3260     2.1400 ha         1 OYS       0.128500
     26 HAJ         -0.2490    -1.3590    -0.2720 ha         1 OYS       0.152000
     27 HAK         -1.1570     2.7890     0.4060 ha         1 OYS       0.152000
     28 HAL         -2.6240    -1.8630    -0.3200 ha         1 OYS       0.155500
     29 HAM         -3.5410     2.2780     0.3660 ha         1 OYS       0.155500
     30 HAN          3.2020     1.8930    -0.9140 hc         1 OYS       0.067200
     31 HANA         3.1670     1.9120     0.8330 hc         1 OYS       0.067200
     32 NAO          0.8080     1.1510     0.1000 ns         1 OYS      -0.480100
     33 HAE          7.6430    -1.7890     0.0780 ha         1 OYS       0.132000
     34 HNAO         0.9530     2.1390     0.2530 hn         1 OYS       0.318500
@<TRIPOS>BOND
     1     1    19 1   
     2     1    20 1   
     3     1    21 1   
     4     2    15 2   
     5     3    19 2   
     6     4    19 2   
     7     5     6 ar  
     8     5     7 ar  
     9     5    33 1   
    10     6     8 ar  
    11     6    22 1   
    12     7     9 ar  
    13     7    23 1   
    14     8    16 ar  
    15     8    24 1   
    16     9    16 ar  
    17     9    25 1   
    18    10    12 ar  
    19    10    17 ar  
    20    10    26 1   
    21    11    13 ar  
    22    11    17 ar  
    23    11    27 1   
    24    12    18 ar  
    25    12    28 1   
    26    13    18 ar  
    27    13    29 1   
    28    14    15 1   
    29    14    16 1   
    30    14    30 1   
    31    14    31 1   
    32    15    32 1   
    33    17    32 1   
    34    18    19 1   
    35    32    34 1   
@<TRIPOS>SUBSTRUCTURE
     1 OYS         1 TEMP              0 ****  ****    0 ROOT
