@<TRIPOS>MOLECULE
OYT
   25    27     1     0     0
SMALL
bcc


@<TRIPOS>ATOM
      1 C10          1.7800     2.8620     3.1780 cc         1 OYT       0.405700
      2 N12          3.4970     1.8590     6.0460 nb         1 OYT      -0.741000
      3 C13          3.5410     0.5870     6.3970 ca         1 OYT       0.703900
      4 C01          1.8470    -2.6730     4.5160 c3         1 OYT       0.224100
      5 C03          2.2840    -0.2680     4.6700 ca         1 OYT       0.773200
      6 C04          2.1630     1.0500     4.1860 ca         1 OYT      -0.232200
      7 C05          2.7890     2.0380     4.9300 ca         1 OYT       0.455800
      8 C07          2.9960     4.5070     4.6170 cx         1 OYT      -0.012000
      9 C08          2.5070     5.1330     5.8830 cx         1 OYT      -0.124900
     10 C09          2.0370     5.6520     4.5610 cx         1 OYT      -0.124900
     11 N02          1.7270    -1.3120     4.0530 nu         1 OYT      -0.858900
     12 N06          2.5270     3.2030     4.2700 na         1 OYT      -0.226000
     13 N11          1.5360     1.5870     3.0920 nd         1 OYT      -0.554100
     14 N14          2.9900    -0.4620     5.7890 nb         1 OYT      -0.824000
     15 H1           1.4430     3.6130     2.4790 h5         1 OYT       0.066800
     16 H2           4.1010     0.3600     7.2990 h5         1 OYT       0.044100
     17 H3           1.2950    -3.3130     3.8360 h1         1 OYT       0.043033
     18 H4           2.8860    -3.0050     4.5340 h1         1 OYT       0.043033
     19 H5           1.4340    -2.7980     5.5180 h1         1 OYT       0.043033
     20 H6           4.0230     4.6930     4.3240 h1         1 OYT       0.101700
     21 H7           3.2170     5.7180     6.4510 hc         1 OYT       0.083950
     22 H8           1.8030     4.5690     6.4800 hc         1 OYT       0.083950
     23 H9           2.4210     6.5970     4.2030 hc         1 OYT       0.083950
     24 H10          1.0130     5.4470     4.2750 hc         1 OYT       0.083950
     25 H11          1.2070    -1.1350     3.2110 hn         1 OYT       0.458800
@<TRIPOS>BOND
     1     1    12 1   
     2     1    13 2   
     3     1    15 1   
     4     2     3 ar  
     5     2     7 ar  
     6     3    14 ar  
     7     3    16 1   
     8     4    11 1   
     9     4    17 1   
    10     4    18 1   
    11     4    19 1   
    12     5     6 ar  
    13     5    11 1   
    14     5    14 ar  
    15     6     7 ar  
    16     6    13 1   
    17     7    12 1   
    18     8     9 1   
    19     8    10 1   
    20     8    12 1   
    21     8    20 1   
    22     9    10 1   
    23     9    21 1   
    24     9    22 1   
    25    10    23 1   
    26    10    24 1   
    27    11    25 1   
@<TRIPOS>SUBSTRUCTURE
     1 OYT         1 TEMP              0 ****  ****    0 ROOT
