@<TRIPOS>MOLECULE
OYT
   25    27     1     0     0
SMALL
No Charge or Current Charge


@<TRIPOS>ATOM
      1 C10          1.7810     2.8260     3.1180 cc         1 OYT       0.405700
      2 N12          3.4520     1.8410     6.1190 nb         1 OYT      -0.215000
      3 C13          3.5220     0.5500     6.5220 ca         1 OYT       0.177900
      4 C01          1.8190    -2.7820     4.4310 c3         1 OYT       0.224100
      5 C03          2.3370    -0.2810     4.7380 ca         1 OYT       0.444900
      6 C04          2.2160     1.0350     4.2440 ca         1 OYT      -0.101600
      7 C05          2.7870     2.0540     4.9680 ca         1 OYT       0.127500
      8 C07          2.9050     4.5550     4.5800 cx         1 OYT       0.017300
      9 C08          2.6020     5.2600     5.8810 cx         1 OYT      -0.124900
     10 C09          1.9780     5.7480     4.5970 cx         1 OYT      -0.124900
     11 N02          1.7820    -1.3580     4.0540 nu         1 OYT      -0.914100
     12 N06          2.5080     3.1830     4.2560 na         1 OYT      -0.255300
     13 N11          1.5800     1.4930     3.0810 nd         1 OYT      -0.554100
     14 N14          2.9960    -0.5270     5.8880 nb         1 OYT      -0.298000
     15 H1           1.4440     3.5520     2.3870 h5         1 OYT       0.066800
     16 H2           4.0550     0.3570     7.4510 h5         1 OYT       0.044100
     17 H3           1.2900    -3.3910     3.6860 h1         1 OYT       0.043033
     18 H4           2.8570    -3.1370     4.4950 h1         1 OYT       0.043033
     19 H5           1.3390    -2.9350     5.4070 h1         1 OYT       0.043033
     20 H6           3.9000     4.7020     4.1550 h1         1 OYT       0.101700
     21 H7           3.3930     5.8610     6.3250 hc         1 OYT       0.083950
     22 H8           1.9610     4.7510     6.5960 hc         1 OYT       0.083950
     23 H9           2.3450     6.6790     4.1730 hc         1 OYT       0.083950
     24 H10          0.9150     5.5690     4.4550 hc         1 OYT       0.083950
     25 H11          1.2990    -1.0970     3.1910 hn         1 OYT       0.514000
@<TRIPOS>BOND
     1     1    12 1   
     2     1    13 2   
     3     1    15 1   
     4     2     3 ar  
     5     2     7 ar  
     6     3    14 ar  
     7     3    16 1   
     8     4    11 1   
     9     4    17 1   
    10     4    18 1   
    11     4    19 1   
    12     5     6 ar  
    13     5    11 1   
    14     5    14 ar  
    15     6     7 ar  
    16     6    13 1   
    17     7    12 1   
    18     8     9 1   
    19     8    10 1   
    20     8    12 1   
    21     8    20 1   
    22     9    10 1   
    23     9    21 1   
    24     9    22 1   
    25    10    23 1   
    26    10    24 1   
    27    11    25 1   
@<TRIPOS>SUBSTRUCTURE
     1 OYT         1 TEMP              0 ****  ****    0 ROOT
