@<TRIPOS>MOLECULE
OYU
   26    25     1     0     0
SMALL
No Charge or Current Charge


@<TRIPOS>ATOM
      1 C6          14.0680   -19.3100    -1.5360 c3         1 OYU       0.131600
      2 C2          17.0530   -24.6130    -0.3110 c3         1 OYU      -0.107767
      3 C5          13.5370   -20.5070    -0.7110 c3         1 OYU       0.115000
      4 C4          15.5660   -21.9710    -0.4970 c          1 OYU       0.644100
      5 N           14.5910   -21.1890     0.0500 ns         1 OYU      -0.507900
      6 C           18.5480   -22.5250    -0.6170 c3         1 OYU      -0.107767
      7 O           16.3770   -22.4060     0.5150 os         1 OYU      -0.490100
      8 C1          17.5220   -23.2600     0.2840 c3         1 OYU       0.220000
      9 C3          18.1210   -23.4840     1.6900 c3         1 OYU      -0.107767
     10 O1          15.6670   -22.2210    -1.6870 o          1 OYU      -0.546000
     11 O2          12.9880   -18.6590    -2.2230 oh         1 OYU      -0.666000
     12 H1          14.8140   -19.6690    -2.2570 h1         1 OYU       0.027700
     13 H2          14.5670   -18.6040    -0.8590 h1         1 OYU       0.027700
     14 H3          16.2120   -25.0200     0.2630 hc         1 OYU       0.050478
     15 H4          16.7430   -24.5160    -1.3570 hc         1 OYU       0.050478
     16 H5          17.8680   -25.3460    -0.2820 hc         1 OYU       0.050478
     17 H6          12.7740   -20.1500    -0.0070 h1         1 OYU       0.071700
     18 H7          13.0630   -21.2320    -1.3860 h1         1 OYU       0.071700
     19 H8          14.6320   -21.0730     1.0550 hn         1 OYU       0.322500
     20 H9          18.7280   -21.5070    -0.2510 hc         1 OYU       0.050478
     21 H10         19.5060   -23.0580    -0.6170 hc         1 OYU       0.050478
     22 H11         18.2120   -22.4640    -1.6570 hc         1 OYU       0.050478
     23 H12         17.3920   -23.9640     2.3530 hc         1 OYU       0.050478
     24 H13         19.0080   -24.1260     1.6390 hc         1 OYU       0.050478
     25 H14         18.4190   -22.5300     2.1430 hc         1 OYU       0.050478
     26 H15         13.3790   -17.9120    -2.7310 ho         1 OYU       0.446000
@<TRIPOS>BOND
     1     1     3 1   
     2     1    11 1   
     3     1    12 1   
     4     1    13 1   
     5     2     8 1   
     6     2    14 1   
     7     2    15 1   
     8     2    16 1   
     9     3     5 1   
    10     3    17 1   
    11     3    18 1   
    12     4     5 1   
    13     4     7 1   
    14     4    10 2   
    15     5    19 1   
    16     6     8 1   
    17     6    20 1   
    18     6    21 1   
    19     6    22 1   
    20     7     8 1   
    21     8     9 1   
    22     9    23 1   
    23     9    24 1   
    24     9    25 1   
    25    11    26 1   
@<TRIPOS>SUBSTRUCTURE
     1 OYU         1 TEMP              0 ****  ****    0 ROOT
