@<TRIPOS>MOLECULE
OYU
   26    25     1     0     0
SMALL
abcg2


@<TRIPOS>ATOM
      1 C6          14.0620   -19.2100    -1.3770 c3         1 OYU       0.131600
      2 C2          17.0370   -24.6440    -0.1850 c3         1 OYU      -0.107767
      3 C5          13.5950   -20.5790    -0.9010 c3         1 OYU       0.115000
      4 C4          15.5650   -22.0080    -0.5280 c          1 OYU       0.644100
      5 N           14.5730   -21.2210    -0.0470 ns         1 OYU      -0.507900
      6 C           18.5260   -22.6610    -0.7070 c3         1 OYU      -0.107767
      7 O           16.3870   -22.3710     0.4770 os         1 OYU      -0.490100
      8 C1          17.5310   -23.2760     0.2710 c3         1 OYU       0.220000
      9 C3          18.1400   -23.3630     1.6650 c3         1 OYU      -0.107767
     10 O1          15.6770   -22.3420    -1.6980 o          1 OYU      -0.546000
     11 O2          13.0130   -18.6480    -2.1650 oh         1 OYU      -0.666000
     12 H1          14.9790   -19.3190    -1.9660 h1         1 OYU       0.027700
     13 H2          14.2820   -18.5760    -0.5110 h1         1 OYU       0.027700
     14 H3          16.2900   -25.0270     0.5130 hc         1 OYU       0.050478
     15 H4          16.6020   -24.5980    -1.1810 hc         1 OYU       0.050478
     16 H5          17.8770   -25.3400    -0.2030 hc         1 OYU       0.050478
     17 H6          12.6640   -20.4730    -0.3430 h1         1 OYU       0.071700
     18 H7          13.4050   -21.2230    -1.7590 h1         1 OYU       0.071700
     19 H8          14.6190   -20.9560     0.9240 hn         1 OYU       0.322500
     20 H9          18.8020   -21.6550    -0.3830 hc         1 OYU       0.050478
     21 H10         19.4300   -23.2730    -0.7260 hc         1 OYU       0.050478
     22 H11         18.1170   -22.6100    -1.7130 hc         1 OYU       0.050478
     23 H12         17.4170   -23.7660     2.3750 hc         1 OYU       0.050478
     24 H13         19.0120   -24.0190     1.6450 hc         1 OYU       0.050478
     25 H14         18.4560   -22.3760     2.0060 hc         1 OYU       0.050478
     26 H15         13.2970   -17.7820    -2.4780 ho         1 OYU       0.446000
@<TRIPOS>BOND
     1     1     3 1   
     2     1    11 1   
     3     1    12 1   
     4     1    13 1   
     5     2     8 1   
     6     2    14 1   
     7     2    15 1   
     8     2    16 1   
     9     3     5 1   
    10     3    17 1   
    11     3    18 1   
    12     4     5 1   
    13     4     7 1   
    14     4    10 2   
    15     5    19 1   
    16     6     8 1   
    17     6    20 1   
    18     6    21 1   
    19     6    22 1   
    20     7     8 1   
    21     8     9 1   
    22     9    23 1   
    23     9    24 1   
    24     9    25 1   
    25    11    26 1   
@<TRIPOS>SUBSTRUCTURE
     1 OYU         1 TEMP              0 ****  ****    0 ROOT
