@<TRIPOS>MOLECULE
OYV
   43    43     1     0     0
SMALL
abcg2


@<TRIPOS>ATOM
      1 C1           2.5980    -3.5330    -0.2920 c          1 OYV       0.571300
      2 C2           3.0390    -2.1590     0.0090 ce         1 OYV      -0.308200
      3 C3           2.2880    -1.1090    -0.3700 cf         1 OYV      -0.082000
      4 C4           2.5190     0.3060    -0.1880 cd         1 OYV      -0.253200
      5 C5           1.5770     1.2220    -0.5910 cc         1 OYV       0.136400
      6 C6           0.2450     0.8930    -1.1860 c3         1 OYV      -0.060200
      7 C7          -0.8100     0.7340    -0.0850 c3         1 OYV      -0.105400
      8 C8          -2.1700     0.3290    -0.6490 c3         1 OYV       0.143300
      9 C9          -3.1750     0.0690     0.4920 c3         1 OYV       0.100300
     10 C10         -4.6270    -0.0780    -0.0100 c3         1 OYV       0.138300
     11 C11         -5.5010    -0.8010     1.0060 c3         1 OYV       0.131600
     12 N            1.7820     2.5480    -0.4040 ns         1 OYV      -0.513600
     13 C            3.4990    -4.6210     0.2230 c3         1 OYV      -0.195100
     14 C12          2.8930     3.1050     0.1810 c          1 OYV       0.617000
     15 C13          3.7410     0.8050     0.4320 c          1 OYV       0.598200
     16 N1           3.8190     2.1810     0.5660 ns         1 OYV      -0.466500
     17 O1          -2.6280     1.2510    -1.6070 oh         1 OYV      -0.703000
     18 O2          -2.7400    -1.0330     1.2560 oh         1 OYV      -0.708000
     19 O3          -5.1640     1.1850    -0.3400 oh         1 OYV      -0.694000
     20 O4          -6.8140    -0.8570     0.4970 oh         1 OYV      -0.708000
     21 O5           3.0270     4.2990     0.3320 o          1 OYV      -0.544000
     22 O6           4.6640     0.1200     0.8290 o          1 OYV      -0.527000
     23 H3           3.9710    -2.0460     0.5400 ha         1 OYV       0.212000
     24 H4           1.3710    -1.3660    -0.8870 ha         1 OYV       0.181000
     25 H6          -0.0430     1.6930    -1.8700 hc         1 OYV       0.078200
     26 H7           0.3020    -0.0120    -1.7890 hc         1 OYV       0.078200
     27 H8          -0.4790    -0.0180     0.6330 hc         1 OYV       0.059200
     28 H9          -0.9090     1.6730     0.4690 hc         1 OYV       0.059200
     29 H10         -2.0530    -0.6190    -1.1930 h1         1 OYV       0.071700
     30 H11         -3.1560     0.9220     1.1840 h1         1 OYV       0.069700
     31 H12         -4.6330    -0.6570    -0.9420 h1         1 OYV       0.094700
     32 H13         -5.1020    -1.8030     1.1900 h1         1 OYV       0.028200
     33 H14         -5.4640    -0.2630     1.9660 h1         1 OYV       0.028200
     34 H15          3.1570    -5.6060    -0.0850 hc         1 OYV       0.061367
     35 H16          4.5210    -4.4680    -0.1290 hc         1 OYV       0.061367
     36 H17          3.5380    -4.5800     1.3140 hc         1 OYV       0.061367
     37 H18          4.6600     2.5440     0.9980 hn         1 OYV       0.347500
     38 H19         -3.0210     2.0050    -1.1560 ho         1 OYV       0.512000
     39 H20         -2.6730    -1.8040     0.6820 ho         1 OYV       0.510000
     40 H21         -5.3010     1.6790     0.4770 ho         1 OYV       0.497000
     41 H22         -7.3490    -1.3570     1.1190 ho         1 OYV       0.505000
     42 O7           1.5750    -3.7820    -0.9060 o          1 OYV      -0.547100
     43 H1           1.0750     3.2000    -0.7160 hn         1 OYV       0.463000
@<TRIPOS>BOND
     1     1     2 1   
     2     1    13 1   
     3     1    42 2   
     4     2     3 2   
     5     2    23 1   
     6     3     4 1   
     7     3    24 1   
     8     4     5 2   
     9     4    15 1   
    10     5     6 1   
    11     5    12 1   
    12     6     7 1   
    13     6    25 1   
    14     6    26 1   
    15     7     8 1   
    16     7    27 1   
    17     7    28 1   
    18     8     9 1   
    19     8    17 1   
    20     8    29 1   
    21     9    10 1   
    22     9    18 1   
    23     9    30 1   
    24    10    11 1   
    25    10    19 1   
    26    10    31 1   
    27    11    20 1   
    28    11    32 1   
    29    11    33 1   
    30    12    14 1   
    31    12    43 1   
    32    13    34 1   
    33    13    35 1   
    34    13    36 1   
    35    14    16 1   
    36    14    21 2   
    37    15    16 1   
    38    15    22 2   
    39    16    37 1   
    40    17    38 1   
    41    18    39 1   
    42    19    40 1   
    43    20    41 1   
@<TRIPOS>SUBSTRUCTURE
     1 OYV         1 TEMP              0 ****  ****    0 ROOT
