@<TRIPOS>MOLECULE
OYV
   43    43     1     0     0
SMALL
No Charge or Current Charge


@<TRIPOS>ATOM
      1 C1           2.4610    -3.5010    -0.4290 c          1 OYV       0.571300
      2 C2           2.7370    -2.0840    -0.0650 ce         1 OYV      -0.308200
      3 C3           2.4820    -1.0050    -0.8580 cf         1 OYV      -0.082000
      4 C4           2.7030     0.4070    -0.5120 cd         1 OYV      -0.253200
      5 C5           1.7290     1.3720    -0.6730 cc         1 OYV       0.136400
      6 C6           0.3230     1.1660    -1.1840 c3         1 OYV      -0.060200
      7 C7          -0.6530     0.7130    -0.0690 c3         1 OYV      -0.105400
      8 C8          -2.0990     0.4360    -0.5630 c3         1 OYV       0.143300
      9 C9          -3.0530    -0.0980     0.5640 c3         1 OYV       0.100300
     10 C10         -4.5330    -0.3090     0.0890 c3         1 OYV       0.138300
     11 C11         -5.4770    -0.7890     1.2240 c3         1 OYV       0.131600
     12 N            2.0230     2.6710    -0.3110 ns         1 OYV      -0.513600
     13 C            2.8250    -4.5590     0.6080 c3         1 OYV      -0.195100
     14 C12          3.2090     3.1060     0.1900 c          1 OYV       0.617000
     15 C13          4.0340     0.8130     0.0240 c          1 OYV       0.598200
     16 N1           4.1440     2.1370     0.3230 ns         1 OYV      -0.466500
     17 O1          -2.6400     1.6490    -1.1010 oh         1 OYV      -0.703000
     18 O2          -2.5370    -1.3310     1.1140 oh         1 OYV      -0.708000
     19 O3          -5.0930     0.9130    -0.4250 oh         1 OYV      -0.694000
     20 O4          -6.8440    -0.7310     0.7680 oh         1 OYV      -0.708000
     21 O5           3.4090     4.2660     0.4920 o          1 OYV      -0.544000
     22 O6           4.9760     0.0550     0.1940 o          1 OYV      -0.527000
     23 H3           3.1770    -1.9290     0.9190 ha         1 OYV       0.212000
     24 H4           2.0050    -1.1840    -1.8250 ha         1 OYV       0.181000
     25 H6          -0.0500     2.0890    -1.6440 hc         1 OYV       0.078200
     26 H7           0.3230     0.4200    -1.9870 hc         1 OYV       0.078200
     27 H8          -0.2480    -0.1960     0.3900 hc         1 OYV       0.059200
     28 H9          -0.6800     1.4750     0.7200 hc         1 OYV       0.059200
     29 H10         -2.0520    -0.3260    -1.3540 h1         1 OYV       0.071700
     30 H11         -3.0750     0.6620     1.3580 h1         1 OYV       0.069700
     31 H12         -4.5380    -1.0790    -0.6970 h1         1 OYV       0.094700
     32 H13         -5.2120    -1.8160     1.5090 h1         1 OYV       0.028200
     33 H14         -5.3420    -0.1490     2.1070 h1         1 OYV       0.028200
     34 H15          2.5950    -5.5770     0.2750 hc         1 OYV       0.061367
     35 H16          3.8820    -4.4470     0.8730 hc         1 OYV       0.061367
     36 H17          2.3230    -4.3180     1.5510 hc         1 OYV       0.061367
     37 H18          5.0340     2.4330     0.6890 hn         1 OYV       0.347500
     38 H19         -3.6260     1.5610    -0.9580 ho         1 OYV       0.512000
     39 H20         -2.4110    -1.9710     0.3750 ho         1 OYV       0.510000
     40 H21         -6.0640     0.7930    -0.2650 ho         1 OYV       0.497000
     41 H22         -7.4040    -1.1320     1.4760 ho         1 OYV       0.505000
     42 O7           1.9660    -3.8100    -1.5050 o          1 OYV      -0.547100
     43 H1           1.3210     3.3950    -0.4050 hn         1 OYV       0.463000
@<TRIPOS>BOND
     1     1     2 1   
     2     1    13 1   
     3     1    42 2   
     4     2     3 2   
     5     2    23 1   
     6     3     4 1   
     7     3    24 1   
     8     4     5 2   
     9     4    15 1   
    10     5     6 1   
    11     5    12 1   
    12     6     7 1   
    13     6    25 1   
    14     6    26 1   
    15     7     8 1   
    16     7    27 1   
    17     7    28 1   
    18     8     9 1   
    19     8    17 1   
    20     8    29 1   
    21     9    10 1   
    22     9    18 1   
    23     9    30 1   
    24    10    11 1   
    25    10    19 1   
    26    10    31 1   
    27    11    20 1   
    28    11    32 1   
    29    11    33 1   
    30    12    14 1   
    31    12    43 1   
    32    13    34 1   
    33    13    35 1   
    34    13    36 1   
    35    14    16 1   
    36    14    21 2   
    37    15    16 1   
    38    15    22 2   
    39    16    37 1   
    40    17    38 1   
    41    18    39 1   
    42    19    40 1   
    43    20    41 1   
@<TRIPOS>SUBSTRUCTURE
     1 OYV         1 TEMP              0 ****  ****    0 ROOT
