@<TRIPOS>MOLECULE
OYX
   56    59     1     0     0
SMALL
No Charge or Current Charge


@<TRIPOS>ATOM
      1 N1           9.2210    -0.4880    22.4510 n          1 OYX      -0.417800
      2 C4           4.7310     0.8200    18.1470 ca         1 OYX       0.364900
      3 C5           4.7110     1.1290    19.5200 ca         1 OYX      -0.098000
      4 C6           3.7970     2.0750    20.0260 ca         1 OYX      -0.078000
      5 C7           3.7890     2.3790    21.3970 ca         1 OYX      -0.114000
      6 C8           4.6930     1.7420    22.2630 ca         1 OYX      -0.089000
      7 C10          5.6200     0.4810    20.3850 ca         1 OYX       0.007000
      8 C13          7.7750    -2.9010    25.2200 c6         1 OYX      -0.060700
      9 C15          8.7760    -4.4930    26.9610 c6         1 OYX      -0.074400
     10 C17          7.0030    -5.3420    25.3270 c6         1 OYX      -0.074400
     11 C20         11.6220    -0.0450    22.8450 cc         1 OYX      -0.218300
     12 C21         12.3390    -0.2700    21.6960 cd         1 OYX      -0.120000
     13 C22         13.6440    -0.7780    21.9320 cd         1 OYX      -0.130000
     14 O            9.1930     0.4880    20.3700 o          1 OYX      -0.585100
     15 C            8.7180    -0.3440    21.1340 c          1 OYX       0.594100
     16 C1           7.5440    -1.2300    20.6630 c3         1 OYX      -0.101100
     17 C2           6.5150    -0.4630    19.8240 ca         1 OYX      -0.102300
     18 C9           5.6050     0.7970    21.7620 ca         1 OYX      -0.107000
     19 N            5.5860    -0.0740    17.6030 nb         1 OYX      -0.660000
     20 C3           6.4560    -0.6930    18.4330 ca         1 OYX       0.339900
     21 C19         10.2150     0.4780    22.9760 c3         1 OYX       0.171300
     22 S           12.5720    -0.4640    24.2690 ss         1 OYX       0.166000
     23 C23         13.9340    -0.9440    23.2620 cc         1 OYX      -0.229000
     24 C11          9.0520    -1.7410    23.2290 c3         1 OYX       0.101000
     25 C12          7.9780    -1.6330    24.3370 c3         1 OYX      -0.093400
     26 C18          7.2690    -4.1260    24.4050 c6         1 OYX      -0.072400
     27 C16          8.2630    -5.7080    26.1500 c6         1 OYX      -0.076400
     28 C14          9.0430    -3.2770    26.0390 c6         1 OYX      -0.072400
     29 H1           4.0410     1.3050    17.4570 h4         1 OYX       0.019100
     30 H2           3.0960     2.5740    19.3600 ha         1 OYX       0.117000
     31 H3           3.0850     3.1100    21.7880 ha         1 OYX       0.116000
     32 H4           4.6880     1.9810    23.3240 ha         1 OYX       0.113000
     33 H5           6.9850    -2.6290    25.9360 hc         1 OYX       0.049700
     34 H6           9.6960    -4.7630    27.4960 hc         1 OYX       0.040450
     35 H7           8.0380    -4.2200    27.7280 hc         1 OYX       0.040450
     36 H8           6.1700    -5.1160    26.0070 hc         1 OYX       0.040450
     37 H9           6.6880    -6.2050    24.7240 hc         1 OYX       0.040450
     38 H10         11.9450    -0.0800    20.7020 ha         1 OYX       0.136000
     39 H11         14.3440    -1.0120    21.1350 ha         1 OYX       0.134000
     40 H12          7.0580    -1.7280    21.5070 hc         1 OYX       0.066700
     41 H13          7.9840    -2.0510    20.0860 hc         1 OYX       0.066700
     42 H14          6.2940     0.3260    22.4540 ha         1 OYX       0.113000
     43 H15          7.1310    -1.4070    17.9620 h4         1 OYX       0.017100
     44 H16         10.1310     1.4390    22.4530 h1         1 OYX       0.069700
     45 H17          9.9960     0.6710    24.0350 h1         1 OYX       0.069700
     46 H18         14.8410    -1.3100    23.7250 h4         1 OYX       0.150000
     47 H19          8.8170    -2.5710    22.5520 h1         1 OYX       0.054700
     48 H20         10.0130    -1.9930    23.6940 h1         1 OYX       0.054700
     49 H21          8.2370    -0.7860    24.9840 hc         1 OYX       0.044700
     50 H22          7.0220    -1.3690    23.8730 hc         1 OYX       0.044700
     51 H23          6.3480    -3.8650    23.8660 hc         1 OYX       0.038450
     52 H24          8.0080    -4.4090    23.6440 hc         1 OYX       0.038450
     53 H25          8.0350    -6.5410    26.8300 hc         1 OYX       0.039700
     54 H26          9.0540    -6.0640    25.4760 hc         1 OYX       0.039700
     55 H27          9.8770    -3.5160    25.3640 hc         1 OYX       0.038450
     56 H28          9.3670    -2.4200    26.6450 hc         1 OYX       0.038450
@<TRIPOS>BOND
     1     1    15 1   
     2     1    21 1   
     3     1    24 1   
     4     2     3 ar  
     5     2    19 ar  
     6     2    29 1   
     7     3     4 ar  
     8     3     7 ar  
     9     4     5 ar  
    10     4    30 1   
    11     5     6 ar  
    12     5    31 1   
    13     6    18 ar  
    14     6    32 1   
    15     7    17 ar  
    16     7    18 ar  
    17     8    25 1   
    18     8    26 1   
    19     8    28 1   
    20     8    33 1   
    21     9    27 1   
    22     9    28 1   
    23     9    34 1   
    24     9    35 1   
    25    10    26 1   
    26    10    27 1   
    27    10    36 1   
    28    10    37 1   
    29    11    12 2   
    30    11    21 1   
    31    11    22 1   
    32    12    13 1   
    33    12    38 1   
    34    13    23 2   
    35    13    39 1   
    36    14    15 2   
    37    15    16 1   
    38    16    17 1   
    39    16    40 1   
    40    16    41 1   
    41    17    20 ar  
    42    18    42 1   
    43    19    20 ar  
    44    20    43 1   
    45    21    44 1   
    46    21    45 1   
    47    22    23 1   
    48    23    46 1   
    49    24    25 1   
    50    24    47 1   
    51    24    48 1   
    52    25    49 1   
    53    25    50 1   
    54    26    51 1   
    55    26    52 1   
    56    27    53 1   
    57    27    54 1   
    58    28    55 1   
    59    28    56 1   
@<TRIPOS>SUBSTRUCTURE
     1 OYX         1 TEMP              0 ****  ****    0 ROOT
