@<TRIPOS>MOLECULE
OYX
   56    59     1     0     0
SMALL
abcg2


@<TRIPOS>ATOM
      1 N1           9.3830    -0.4860    22.5870 n          1 OYX      -0.417800
      2 C4           4.9970     0.4790    18.1410 ca         1 OYX       0.364900
      3 C5           4.8230     0.8660    19.4920 ca         1 OYX      -0.098000
      4 C6           3.8250     1.7890    19.8810 ca         1 OYX      -0.078000
      5 C7           3.6950     2.1530    21.1970 ca         1 OYX      -0.114000
      6 C8           4.5540     1.5960    22.1710 ca         1 OYX      -0.089000
      7 C10          5.6910     0.3040    20.4690 ca         1 OYX       0.007000
      8 C13          7.9560    -2.8340    25.3130 c6         1 OYX      -0.060700
      9 C15          8.7680    -4.9620    26.4110 c6         1 OYX      -0.074400
     10 C17          6.4620    -4.8740    25.3740 c6         1 OYX      -0.074400
     11 C20         11.7250     0.2100    22.8700 cc         1 OYX      -0.218300
     12 C21         12.2550    -0.6790    21.9790 cd         1 OYX      -0.120000
     13 C22         13.6800    -0.7180    22.0060 cd         1 OYX      -0.130000
     14 O            8.9760     0.7910    20.7640 o          1 OYX      -0.585100
     15 C            8.7280    -0.2130    21.4350 c          1 OYX       0.594100
     16 C1           7.6690    -1.2190    20.9740 c3         1 OYX      -0.101100
     17 C2           6.6870    -0.6080    20.0190 ca         1 OYX      -0.102300
     18 C9           5.5270     0.6930    21.8210 ca         1 OYX      -0.107000
     19 N            5.9080    -0.3760    17.7400 nb         1 OYX      -0.660000
     20 C3           6.7380    -0.9020    18.6800 ca         1 OYX       0.339900
     21 C19         10.2790     0.5170    23.1440 c3         1 OYX       0.171300
     22 S           12.9790     0.9780    23.7860 ss         1 OYX       0.166000
     23 C23         14.2140     0.1280    22.9330 cc         1 OYX      -0.229000
     24 C11          9.2200    -1.7160    23.3640 c3         1 OYX       0.101000
     25 C12          8.3180    -1.5320    24.5850 c3         1 OYX      -0.093400
     26 C18          6.8720    -3.6320    24.5790 c6         1 OYX      -0.072400
     27 C16          7.6660    -5.7600    25.7050 c6         1 OYX      -0.076400
     28 C14          9.1680    -3.7310    25.5960 c6         1 OYX      -0.072400
     29 H1           4.3390     0.9010    17.3860 h4         1 OYX       0.019100
     30 H2           3.1850     2.2190    19.1190 ha         1 OYX       0.117000
     31 H3           2.9430     2.8720    21.4950 ha         1 OYX       0.116000
     32 H4           4.4290     1.8730    23.2100 ha         1 OYX       0.113000
     33 H5           7.5420    -2.5410    26.2850 hc         1 OYX       0.049700
     34 H6           9.6380    -5.5990    26.5900 hc         1 OYX       0.040450
     35 H7           8.4010    -4.6440    27.3940 hc         1 OYX       0.040450
     36 H8           6.0030    -4.5470    26.3150 hc         1 OYX       0.040450
     37 H9           5.7050    -5.4440    24.8290 hc         1 OYX       0.040450
     38 H10         11.6470    -1.2800    21.3180 ha         1 OYX       0.136000
     39 H11         14.2770    -1.3540    21.3670 ha         1 OYX       0.134000
     40 H12          7.1450    -1.6310    21.8340 hc         1 OYX       0.066700
     41 H13          8.1870    -2.0500    20.4900 hc         1 OYX       0.066700
     42 H14          6.1650     0.2700    22.5850 ha         1 OYX       0.113000
     43 H15          7.4820    -1.6000    18.3140 h4         1 OYX       0.017100
     44 H16         10.0050     1.4810    22.7200 h1         1 OYX       0.069700
     45 H17         10.1070     0.5790    24.2200 h1         1 OYX       0.069700
     46 H18         15.2530     0.3200    23.1510 h4         1 OYX       0.150000
     47 H19          8.8290    -2.4950    22.7160 h1         1 OYX       0.054700
     48 H20         10.2180    -2.0380    23.6640 h1         1 OYX       0.054700
     49 H21          8.7880    -0.8410    25.2880 hc         1 OYX       0.044700
     50 H22          7.3910    -1.0500    24.2570 hc         1 OYX       0.044700
     51 H23          6.0000    -2.9940    24.4060 hc         1 OYX       0.038450
     52 H24          7.2390    -3.9320    23.5900 hc         1 OYX       0.038450
     53 H25          7.3530    -6.6020    26.3280 hc         1 OYX       0.039700
     54 H26          8.0730    -6.1790    24.7770 hc         1 OYX       0.039700
     55 H27          9.6030    -4.0700    24.6500 hc         1 OYX       0.038450
     56 H28          9.9420    -3.1600    26.1170 hc         1 OYX       0.038450
@<TRIPOS>BOND
     1     1    15 1   
     2     1    21 1   
     3     1    24 1   
     4     2     3 ar  
     5     2    19 ar  
     6     2    29 1   
     7     3     4 ar  
     8     3     7 ar  
     9     4     5 ar  
    10     4    30 1   
    11     5     6 ar  
    12     5    31 1   
    13     6    18 ar  
    14     6    32 1   
    15     7    17 ar  
    16     7    18 ar  
    17     8    25 1   
    18     8    26 1   
    19     8    28 1   
    20     8    33 1   
    21     9    27 1   
    22     9    28 1   
    23     9    34 1   
    24     9    35 1   
    25    10    26 1   
    26    10    27 1   
    27    10    36 1   
    28    10    37 1   
    29    11    12 2   
    30    11    21 1   
    31    11    22 1   
    32    12    13 1   
    33    12    38 1   
    34    13    23 2   
    35    13    39 1   
    36    14    15 2   
    37    15    16 1   
    38    16    17 1   
    39    16    40 1   
    40    16    41 1   
    41    17    20 ar  
    42    18    42 1   
    43    19    20 ar  
    44    20    43 1   
    45    21    44 1   
    46    21    45 1   
    47    22    23 1   
    48    23    46 1   
    49    24    25 1   
    50    24    47 1   
    51    24    48 1   
    52    25    49 1   
    53    25    50 1   
    54    26    51 1   
    55    26    52 1   
    56    27    53 1   
    57    27    54 1   
    58    28    55 1   
    59    28    56 1   
@<TRIPOS>SUBSTRUCTURE
     1 OYX         1 TEMP              0 ****  ****    0 ROOT
