@<TRIPOS>MOLECULE
OYZ
   56    59     1     0     0
SMALL
bcc


@<TRIPOS>ATOM
      1 C4           8.3190    -4.9300    48.4100 ca         1 OYZ      -0.300600
      2 C5           8.9510    -3.7370    49.0560 c6         1 OYZ      -0.119400
      3 C6           8.2890    -2.4500    48.6830 c2         1 OYZ       0.430200
      4 C8           6.7410    -3.4060    47.2120 c6         1 OYZ       0.045500
      5 C13         11.4650    -7.1050    51.1600 c          1 OYZ       0.931600
      6 C20          5.9550    -7.9880    45.1720 ca         1 OYZ      -0.099500
      7 C21          5.2370    -8.9880    44.5380 ca         1 OYZ      -0.120000
      8 C22          4.7960   -10.1120    45.2360 cp         1 OYZ      -0.028000
      9 C24          4.3330   -12.5040    44.5910 ca         1 OYZ       0.161100
     10 C26          2.4290   -13.0320    43.2070 ca         1 OYZ      -0.094000
     11 C28          2.8710   -10.7610    43.8080 ca         1 OYZ      -0.086000
     12 C31          7.1160   -14.2220    46.1960 c3         1 OYZ      -0.096100
     13 C30          5.8610   -14.1720    45.3580 c3         1 OYZ       0.142400
     14 O29          5.4430   -12.8170    45.2800 os         1 OYZ      -0.310900
     15 C25          3.5470   -13.4410    43.9230 ca         1 OYZ      -0.228000
     16 C27          2.0860   -11.6920    43.1420 ca         1 OYZ      -0.175000
     17 C23          3.9890   -11.1410    44.5450 cp         1 OYZ      -0.062000
     18 C32          5.0940   -10.2010    46.5970 ca         1 OYZ      -0.120000
     19 C33          5.8220    -9.2080    47.2300 ca         1 OYZ      -0.099500
     20 C19          6.2720    -8.0950    46.5240 cp         1 OYZ      -0.132500
     21 C1           7.0270    -7.0120    47.1930 cp         1 OYZ       0.547800
     22 C2           8.1360    -7.2990    48.0150 ca         1 OYZ      -0.266300
     23 N18          9.1010    -9.6820    47.9260 n1         1 OYZ      -0.414800
     24 N10          6.6110    -5.7870    46.9630 nb         1 OYZ      -0.748000
     25 C9           7.2670    -4.7730    47.5480 ca         1 OYZ       0.442600
     26 N7           7.3280    -2.2780    47.8850 n2         1 OYZ      -0.600900
     27 C3           8.7870    -6.2410    48.7020 ca         1 OYZ       0.304600
     28 N11          9.8010    -6.3880    49.5550 nu         1 OYZ      -0.710600
     29 C12         10.2480    -7.5490    50.2990 c3         1 OYZ       0.054500
     30 C16          9.1500    -8.1090    51.2010 c3         1 OYZ      -0.085100
     31 H1           8.9330    -3.8220    50.1490 hc         1 OYZ       0.073700
     32 H2          10.0140    -3.6530    48.7940 hc         1 OYZ       0.073700
     33 H3           8.6980    -1.5630    49.1650 h4         1 OYZ       0.007800
     34 H4           6.8410    -3.2480    46.1330 h1         1 OYZ       0.074700
     35 H5           5.6620    -3.3900    47.3960 h1         1 OYZ       0.074700
     36 H6           6.2890    -7.1260    44.6080 ha         1 OYZ       0.141500
     37 H7           5.0220    -8.8970    43.4800 ha         1 OYZ       0.127500
     38 H8           1.8300   -13.7750    42.6980 ha         1 OYZ       0.121000
     39 H9           2.6040    -9.7120    43.7720 ha         1 OYZ       0.136000
     40 H10          7.4630   -15.2530    46.2670 hc         1 OYZ       0.051367
     41 H11          7.9160   -13.6300    45.7520 hc         1 OYZ       0.051367
     42 H12          6.9350   -13.8590    47.2080 hc         1 OYZ       0.051367
     43 H13          5.0750   -14.7880    45.8080 h1         1 OYZ       0.026700
     44 H14          6.0550   -14.5660    44.3540 h1         1 OYZ       0.026700
     45 H15          3.7970   -14.4920    43.9460 ha         1 OYZ       0.129000
     46 H16          1.2160   -11.3710    42.5840 ha         1 OYZ       0.127000
     47 H17          4.7330   -11.0390    47.1780 ha         1 OYZ       0.127500
     48 H18          6.0160    -9.2940    48.2920 ha         1 OYZ       0.141500
     49 H19         10.2540    -5.5560    49.9230 hn         1 OYZ       0.473800
     50 H20         10.6020    -8.3310    49.6250 h1         1 OYZ       0.066700
     51 H21          9.5100    -8.9930    51.7250 hc         1 OYZ       0.030033
     52 H22          8.8480    -7.3680    51.9430 hc         1 OYZ       0.030033
     53 H23          8.2600    -8.4010    50.6430 hc         1 OYZ       0.030033
     54 O15         11.7180    -5.8830    51.1840 o          1 OYZ      -0.815800
     55 C17          8.6640    -8.6150    47.9980 cg         1 OYZ       0.275800
     56 O14         12.0550    -8.0190    51.7540 o          1 OYZ      -0.815800
@<TRIPOS>BOND
     1     1     2 1   
     2     1    25 ar  
     3     1    27 ar  
     4     2     3 1   
     5     2    31 1   
     6     2    32 1   
     7     3    26 2   
     8     3    33 1   
     9     4    25 1   
    10     4    26 1   
    11     4    34 1   
    12     4    35 1   
    13     5    29 1   
    14     5    54 1   
    15     5    56 1   
    16     6     7 ar  
    17     6    20 ar  
    18     6    36 1   
    19     7     8 ar  
    20     7    37 1   
    21     8    17 1   
    22     8    18 ar  
    23     9    14 1   
    24     9    15 ar  
    25     9    17 ar  
    26    10    15 ar  
    27    10    16 ar  
    28    10    38 1   
    29    11    16 ar  
    30    11    17 ar  
    31    11    39 1   
    32    12    13 1   
    33    12    40 1   
    34    12    41 1   
    35    12    42 1   
    36    13    14 1   
    37    13    43 1   
    38    13    44 1   
    39    15    45 1   
    40    16    46 1   
    41    18    19 ar  
    42    18    47 1   
    43    19    20 ar  
    44    19    48 1   
    45    20    21 1   
    46    21    22 ar  
    47    21    24 ar  
    48    22    27 ar  
    49    22    55 1   
    50    23    55 3   
    51    24    25 ar  
    52    27    28 1   
    53    28    29 1   
    54    28    49 1   
    55    29    30 1   
    56    29    50 1   
    57    30    51 1   
    58    30    52 1   
    59    30    53 1   
@<TRIPOS>SUBSTRUCTURE
     1 OYZ         1 TEMP              0 ****  ****    0 ROOT
