@<TRIPOS>MOLECULE
OYZ
   56    59     1     0     0
SMALL
No Charge or Current Charge


@<TRIPOS>ATOM
      1 C4           8.4210    -5.0370    48.4340 ca         1 OYZ      -0.235300
      2 C5           9.0820    -3.8100    49.0940 c6         1 OYZ      -0.119400
      3 C6           8.3250    -2.4990    48.9250 c2         1 OYZ       0.430200
      4 C8           6.5970    -3.4770    47.5230 c6         1 OYZ       0.045500
      5 C13         11.6440    -7.0680    51.2850 c          1 OYZ       0.721000
      6 C20          5.8840    -8.0080    45.1560 ca         1 OYZ      -0.081500
      7 C21          5.1260    -8.9840    44.4870 ca         1 OYZ      -0.102000
      8 C22          4.7370   -10.1800    45.1350 cp         1 OYZ      -0.028000
      9 C24          4.2380   -12.5960    44.4420 ca         1 OYZ       0.161100
     10 C26          2.3140   -13.1000    43.0260 ca         1 OYZ      -0.076000
     11 C28          2.7870   -10.8010    43.6660 ca         1 OYZ      -0.068000
     12 C31          7.0640   -14.3740    46.0990 c3         1 OYZ      -0.096100
     13 C30          5.7890   -14.3460    45.2420 c3         1 OYZ       0.165600
     14 O29          5.3690   -12.9770    45.1400 os         1 OYZ      -0.334100
     15 C25          3.4350   -13.5320    43.7520 ca         1 OYZ      -0.210000
     16 C27          1.9930   -11.7350    42.9820 ca         1 OYZ      -0.157000
     17 C23          3.9200   -11.2080    44.4150 cp         1 OYZ      -0.062000
     18 C32          5.1170   -10.3500    46.4880 ca         1 OYZ      -0.102000
     19 C33          5.8750    -9.3760    47.1590 ca         1 OYZ      -0.081500
     20 C19          6.2890    -8.1880    46.5030 cp         1 OYZ      -0.132500
     21 C1           7.0940    -7.1350    47.2110 cp         1 OYZ       0.482500
     22 C2           8.2880    -7.4010    47.9160 ca         1 OYZ      -0.201000
     23 N18          9.2890    -9.7990    47.9180 n1         1 OYZ      -0.504000
     24 N10          6.6030    -5.8840    47.1000 nb         1 OYZ      -0.748000
     25 C9           7.2440    -4.8640    47.6970 ca         1 OYZ       0.377300
     26 N7           7.2390    -2.3390    48.2410 n2         1 OYZ      -0.600900
     27 C3           8.9490    -6.3340    48.5480 ca         1 OYZ       0.443000
     28 N11         10.1290    -6.5080    49.2810 nu         1 OYZ      -0.904200
     29 C12         10.2950    -7.3540    50.5130 c3         1 OYZ       0.054500
     30 C16          9.0830    -7.1700    51.4550 c3         1 OYZ      -0.085100
     31 H1           9.2060    -3.9900    50.1710 hc         1 OYZ       0.073700
     32 H2          10.0910    -3.6680    48.6850 hc         1 OYZ       0.073700
     33 H3           8.7560    -1.6400    49.4320 h4         1 OYZ       0.007800
     34 H4           6.5750    -3.2400    46.4490 h1         1 OYZ       0.074700
     35 H5           5.5510    -3.5450    47.8550 h1         1 OYZ       0.074700
     36 H6           6.1700    -7.1030    44.6240 ha         1 OYZ       0.123500
     37 H7           4.8450    -8.8160    43.4500 ha         1 OYZ       0.109500
     38 H8           1.6970   -13.8210    42.4940 ha         1 OYZ       0.103000
     39 H9           2.5170    -9.7480    43.6280 ha         1 OYZ       0.118000
     40 H10          7.4250   -15.4030    46.2070 hc         1 OYZ       0.051367
     41 H11          7.8560   -13.7780    45.6310 hc         1 OYZ       0.051367
     42 H12          6.8660   -13.9710    47.0990 hc         1 OYZ       0.051367
     43 H13          5.0130   -14.9570    45.7210 h1         1 OYZ       0.026700
     44 H14          6.0060   -14.7620    44.2490 h1         1 OYZ       0.026700
     45 H15          3.6680   -14.5930    43.7620 ha         1 OYZ       0.111000
     46 H16          1.1250   -11.4000    42.4180 ha         1 OYZ       0.109000
     47 H17          4.8100   -11.2430    47.0260 ha         1 OYZ       0.109500
     48 H18          6.1330    -9.5380    48.2040 ha         1 OYZ       0.123500
     49 H19         10.6920    -5.6540    49.3170 hn         1 OYZ       0.529000
     50 H20         10.3310    -8.4130    50.2260 h1         1 OYZ       0.066700
     51 H21          9.2040    -7.7860    52.3540 hc         1 OYZ       0.030033
     52 H22          8.9880    -6.1230    51.7690 hc         1 OYZ       0.030033
     53 H23          8.1500    -7.4730    50.9660 hc         1 OYZ       0.030033
     54 O15         12.1150    -5.9370    51.2290 o          1 OYZ      -0.710500
     55 C17          8.8470    -8.7180    47.9240 cg         1 OYZ       0.365000
     56 O14         12.2250    -8.0100    51.8090 o          1 OYZ      -0.710500
@<TRIPOS>BOND
     1     1     2 1   
     2     1    25 ar  
     3     1    27 ar  
     4     2     3 1   
     5     2    31 1   
     6     2    32 1   
     7     3    26 2   
     8     3    33 1   
     9     4    25 1   
    10     4    26 1   
    11     4    34 1   
    12     4    35 1   
    13     5    29 1   
    14     5    54 1   
    15     5    56 1   
    16     6     7 ar  
    17     6    20 ar  
    18     6    36 1   
    19     7     8 ar  
    20     7    37 1   
    21     8    17 1   
    22     8    18 ar  
    23     9    14 1   
    24     9    15 ar  
    25     9    17 ar  
    26    10    15 ar  
    27    10    16 ar  
    28    10    38 1   
    29    11    16 ar  
    30    11    17 ar  
    31    11    39 1   
    32    12    13 1   
    33    12    40 1   
    34    12    41 1   
    35    12    42 1   
    36    13    14 1   
    37    13    43 1   
    38    13    44 1   
    39    15    45 1   
    40    16    46 1   
    41    18    19 ar  
    42    18    47 1   
    43    19    20 ar  
    44    19    48 1   
    45    20    21 1   
    46    21    22 ar  
    47    21    24 ar  
    48    22    27 ar  
    49    22    55 1   
    50    23    55 3   
    51    24    25 ar  
    52    27    28 1   
    53    28    29 1   
    54    28    49 1   
    55    29    30 1   
    56    29    50 1   
    57    30    51 1   
    58    30    52 1   
    59    30    53 1   
@<TRIPOS>SUBSTRUCTURE
     1 OYZ         1 TEMP              0 ****  ****    0 ROOT
