@<TRIPOS>MOLECULE
OZ3
   24    25     1     0     0
SMALL
No Charge or Current Charge


@<TRIPOS>ATOM
      1 CA          43.5070   -39.4150    -8.9370 c3         1 OZ3       0.178100
      2 CBO         43.4950   -39.2760    -7.4180 ca         1 OZ3      -0.001300
      3 CBP         42.3050   -38.9050    -6.7420 ca         1 OZ3      -0.104000
      4 CBQ         42.2830   -38.7810    -5.3380 ca         1 OZ3      -0.024000
      5 CBR         43.4730   -39.0320    -4.6360 ca         1 OZ3      -0.251900
      6 CBS         43.7600   -38.9880    -3.2010 ce         1 OZ3       0.496400
      7 CBV         45.7330   -39.6080    -4.2670 c5         1 OZ3       0.104900
      8 CBW         44.6310   -39.3920    -5.2810 ca         1 OZ3      -0.071300
      9 CBX         44.6730   -39.5230    -6.6770 ca         1 OZ3      -0.058000
     10 N           44.1340   -38.2480    -9.5990 n8         1 OZ3      -0.999200
     11 NBT         42.7570   -39.0720    -2.2710 nv         1 OZ3      -0.566700
     12 NBU         45.0980   -39.3170    -2.9320 nu         1 OZ3      -0.430800
     13 HA2         42.4780   -39.5280    -9.3070 h1         1 OZ3       0.056700
     14 HBP         41.3960   -38.7140    -7.3080 ha         1 OZ3       0.144000
     15 HBQ         41.3680   -38.4940    -4.8230 ha         1 OZ3       0.132000
     16 HG8         46.1120   -40.6380    -4.3260 h1         1 OZ3       0.110200
     17 HBV         46.5790   -38.9360    -4.4700 h1         1 OZ3       0.110200
     18 HBX         45.5940   -39.8070    -7.1800 ha         1 OZ3       0.157000
     19 H           44.0480   -38.3530   -10.6180 hn         1 OZ3       0.412000
     20 H2          43.5750   -37.4100    -9.3970 hn         1 OZ3       0.412000
     21 H3          42.9980   -38.9640    -1.2950 hn         1 OZ3       0.378000
     22 HBT         41.8200   -38.8230    -2.5540 hn         1 OZ3       0.378000
     23 HBU         45.2640   -39.8960    -2.1140 hn         1 OZ3       0.381000
     24 HA1         44.0620   -40.3240    -9.2140 h1         1 OZ3       0.056700
@<TRIPOS>BOND
     1     1     2 1   
     2     1    10 1   
     3     1    13 1   
     4     1    24 1   
     5     2     3 ar  
     6     2     9 ar  
     7     3     4 ar  
     8     3    14 1   
     9     4     5 ar  
    10     4    15 1   
    11     5     6 1   
    12     5     8 ar  
    13     6    11 2   
    14     6    12 1   
    15     7     8 1   
    16     7    12 1   
    17     7    16 1   
    18     7    17 1   
    19     8     9 ar  
    20     9    18 1   
    21    10    19 1   
    22    10    20 1   
    23    11    21 1   
    24    11    22 1   
    25    12    23 1   
@<TRIPOS>SUBSTRUCTURE
     1 OZ3         1 TEMP              0 ****  ****    0 ROOT
