@<TRIPOS>MOLECULE
OZ3
   24    25     1     0     0
SMALL
abcg2


@<TRIPOS>ATOM
      1 CA          43.4620   -39.3590    -8.9290 c3         1 OZ3       0.178100
      2 CBO         43.4500   -39.2940    -7.4220 ca         1 OZ3      -0.001300
      3 CBP         42.2670   -38.9840    -6.7400 ca         1 OZ3      -0.104000
      4 CBQ         42.2260   -38.9040    -5.3550 ca         1 OZ3      -0.024000
      5 CBR         43.4040   -39.1450    -4.6610 ca         1 OZ3      -0.251900
      6 CBS         43.6930   -39.1470    -3.2320 ce         1 OZ3       0.496400
      7 CBV         45.6870   -39.6580    -4.3190 c5         1 OZ3       0.104900
      8 CBW         44.5960   -39.4530    -5.3270 ca         1 OZ3      -0.071300
      9 CBX         44.6270   -39.5270    -6.7060 ca         1 OZ3      -0.058000
     10 N           44.2460   -38.2460    -9.4890 n8         1 OZ3      -0.999200
     11 NBT         42.8420   -38.9070    -2.2570 nv         1 OZ3      -0.566700
     12 NBU         44.9750   -39.4320    -3.0610 nu         1 OZ3      -0.430800
     13 HA2         42.4290   -39.3850    -9.2910 h1         1 OZ3       0.056700
     14 HBP         41.3650   -38.8040    -7.3120 ha         1 OZ3       0.144000
     15 HBQ         41.3030   -38.6640    -4.8420 ha         1 OZ3       0.132000
     16 HG8         46.1050   -40.6660    -4.3460 h1         1 OZ3       0.110200
     17 HBV         46.5040   -38.9420    -4.4310 h1         1 OZ3       0.110200
     18 HBX         45.5450   -39.7620    -7.2310 ha         1 OZ3       0.157000
     19 H           44.2930   -38.3450   -10.4980 hn         1 OZ3       0.412000
     20 H2          43.7640   -37.3700    -9.3100 hn         1 OZ3       0.412000
     21 H3          43.1300   -38.9360    -1.2900 hn         1 OZ3       0.378000
     22 HBT         41.8720   -38.7190    -2.4550 hn         1 OZ3       0.378000
     23 HBU         45.4180   -39.5050    -2.1560 hn         1 OZ3       0.381000
     24 HA1         43.9410   -40.2900    -9.2430 h1         1 OZ3       0.056700
@<TRIPOS>BOND
     1     1     2 1   
     2     1    10 1   
     3     1    13 1   
     4     1    24 1   
     5     2     3 ar  
     6     2     9 ar  
     7     3     4 ar  
     8     3    14 1   
     9     4     5 ar  
    10     4    15 1   
    11     5     6 1   
    12     5     8 ar  
    13     6    11 2   
    14     6    12 1   
    15     7     8 1   
    16     7    12 1   
    17     7    16 1   
    18     7    17 1   
    19     8     9 ar  
    20     9    18 1   
    21    10    19 1   
    22    10    20 1   
    23    11    21 1   
    24    11    22 1   
    25    12    23 1   
@<TRIPOS>SUBSTRUCTURE
     1 OZ3         1 TEMP              0 ****  ****    0 ROOT
