@<TRIPOS>MOLECULE
OZ4
   65    71     1     0     0
SMALL
abcg2


@<TRIPOS>ATOM
      1 C1          -4.3550     0.1410    -0.0050 c5         1 OZ4       0.123200
      2 O1           5.8670    -0.8340     0.5790 os         1 OZ4      -0.349100
      3 C2          -5.6900     0.7350     0.4320 c5         1 OZ4      -0.039700
      4 C3          -6.8040     0.8170    -0.5960 c3         1 OZ4      -0.082100
      5 N           -3.1380    -1.6630    -0.8610 ns         1 OZ4      -0.511900
      6 C           -4.4020    -1.2370    -0.6690 c          1 OZ4       0.540000
      7 O           -5.3920    -1.8910    -0.9640 o          1 OZ4      -0.555000
      8 C10         -0.7350    -1.6170    -0.4630 c6         1 OZ4      -0.000200
      9 C11          0.4070    -0.6750    -0.3030 cc         1 OZ4      -0.130400
     10 C12          0.2960     0.6800    -0.3870 cd         1 OZ4      -0.056300
     11 C13         -0.9510     1.4830    -0.6000 c6         1 OZ4       0.027200
     12 C14         -0.7630     2.4500    -1.7810 c3         1 OZ4      -0.085100
     13 C15         -1.2260     2.3300     0.6540 c3         1 OZ4      -0.085100
     14 C16          2.4680     0.2630    -0.0300 ca         1 OZ4       0.008800
     15 C17          1.7890    -0.9730    -0.0730 ca         1 OZ4      -0.122800
     16 C18          2.5160    -2.1520     0.1050 ca         1 OZ4      -0.026000
     17 C19          3.8830    -2.0840     0.3040 ca         1 OZ4      -0.167000
     18 C20          4.5360    -0.8450     0.3320 ca         1 OZ4       0.175100
     19 C21          3.8480     0.3560     0.1770 ca         1 OZ4      -0.167800
     20 C22          4.6020     1.5930     0.2870 ce         1 OZ4      -0.125200
     21 C23          5.9330     1.5520     0.2450 c2         1 OZ4      -0.261200
     22 C24          6.6450     0.2420     0.0250 c6         1 OZ4       0.229200
     23 C25          6.8550     0.0030    -1.4690 c3         1 OZ4      -0.097600
     24 C26          7.9700     0.2100     0.7690 c3         1 OZ4      -0.097600
     25 C4          -6.0160    -0.0680     1.6960 c5         1 OZ4      -0.087400
     26 C5          -4.6440    -0.4340     2.2860 c5         1 OZ4       0.178800
     27 C6          -2.4270    -0.7440     1.2130 c6         1 OZ4       0.172800
     28 C7          -2.0550    -0.8830    -0.2670 c6         1 OZ4       0.115400
     29 C8          -2.0710     0.4820    -0.9950 c6         1 OZ4      -0.043700
     30 C9          -3.5060     1.0470    -0.8950 c6         1 OZ4      -0.056400
     31 N1          -3.6720    -0.0100     1.2850 n3         1 OZ4      -0.753600
     32 N2           1.5420     1.2450    -0.2220 na         1 OZ4      -0.217700
     33 H1          -5.4490     1.7590     0.7420 hc         1 OZ4       0.053700
     34 H2          -7.1690    -0.1650    -0.8860 hc         1 OZ4       0.041700
     35 H3          -7.6440     1.3830    -0.1910 hc         1 OZ4       0.041700
     36 H4          -6.4750     1.3370    -1.4980 hc         1 OZ4       0.041700
     37 H5          -2.9700    -2.6110    -1.1670 hn         1 OZ4       0.317500
     38 H6          -0.7210    -2.0660    -1.4630 hc         1 OZ4       0.056200
     39 H7          -0.6670    -2.4480     0.2460 hc         1 OZ4       0.056200
     40 H8          -0.4770     1.9180    -2.6890 hc         1 OZ4       0.039700
     41 H9          -1.6910     2.9880    -1.9820 hc         1 OZ4       0.039700
     42 H10          0.0030     3.1990    -1.5730 hc         1 OZ4       0.039700
     43 H11         -0.3650     2.9650     0.8680 hc         1 OZ4       0.039700
     44 H12         -2.0730     2.9990     0.5080 hc         1 OZ4       0.039700
     45 H13         -1.4210     1.7310     1.5400 hc         1 OZ4       0.039700
     46 H14          2.0230    -3.1160     0.0800 ha         1 OZ4       0.116000
     47 H15          4.4630    -2.9870     0.4450 ha         1 OZ4       0.128000
     48 H16          4.0800     2.5330     0.4220 ha         1 OZ4       0.174000
     49 H17          6.5320     2.4510     0.3330 ha         1 OZ4       0.186000
     50 H18          5.9080    -0.0090    -2.0110 hc         1 OZ4       0.046867
     51 H19          7.4680     0.8000    -1.8920 hc         1 OZ4       0.046867
     52 H20          7.3660    -0.9450    -1.6440 hc         1 OZ4       0.046867
     53 H21          8.4670    -0.7520     0.6400 hc         1 OZ4       0.046867
     54 H22          8.6330     0.9830     0.3800 hc         1 OZ4       0.046867
     55 H23          7.8300     0.3920     1.8350 hc         1 OZ4       0.046867
     56 H24         -6.6320     0.5020     2.3910 hc         1 OZ4       0.055700
     57 H25         -6.5710    -0.9690     1.4300 hc         1 OZ4       0.055700
     58 H26         -4.4510     0.0700     3.2370 h1         1 OZ4       0.038200
     59 H27         -4.5800    -1.5120     2.4860 h1         1 OZ4       0.038200
     60 H28         -2.5310    -1.7600     1.6230 h1         1 OZ4       0.050700
     61 H29         -1.6340    -0.2580     1.7880 h1         1 OZ4       0.050700
     62 H30         -1.8770     0.2310    -2.0420 hc         1 OZ4       0.060700
     63 H31         -3.9570     1.1360    -1.8850 hc         1 OZ4       0.057700
     64 H32         -3.5190     2.0460    -0.4590 hc         1 OZ4       0.057700
     65 H34          1.7360     2.2320    -0.2430 hn         1 OZ4       0.350000
@<TRIPOS>BOND
     1     1     3 1   
     2     1     6 1   
     3     1    30 1   
     4     1    31 1   
     5     2    18 1   
     6     2    22 1   
     7     3     4 1   
     8     3    25 1   
     9     3    33 1   
    10     4    34 1   
    11     4    35 1   
    12     4    36 1   
    13     5     6 1   
    14     5    28 1   
    15     5    37 1   
    16     6     7 2   
    17     8     9 1   
    18     8    28 1   
    19     8    38 1   
    20     8    39 1   
    21     9    10 2   
    22     9    15 1   
    23    10    11 1   
    24    10    32 1   
    25    11    12 1   
    26    11    13 1   
    27    11    29 1   
    28    12    40 1   
    29    12    41 1   
    30    12    42 1   
    31    13    43 1   
    32    13    44 1   
    33    13    45 1   
    34    14    15 ar  
    35    14    19 ar  
    36    14    32 1   
    37    15    16 ar  
    38    16    17 ar  
    39    16    46 1   
    40    17    18 ar  
    41    17    47 1   
    42    18    19 ar  
    43    19    20 1   
    44    20    21 2   
    45    20    48 1   
    46    21    22 1   
    47    21    49 1   
    48    22    23 1   
    49    22    24 1   
    50    23    50 1   
    51    23    51 1   
    52    23    52 1   
    53    24    53 1   
    54    24    54 1   
    55    24    55 1   
    56    25    26 1   
    57    25    56 1   
    58    25    57 1   
    59    26    31 1   
    60    26    58 1   
    61    26    59 1   
    62    27    28 1   
    63    27    31 1   
    64    27    60 1   
    65    27    61 1   
    66    28    29 1   
    67    29    30 1   
    68    29    62 1   
    69    30    63 1   
    70    30    64 1   
    71    32    65 1   
@<TRIPOS>SUBSTRUCTURE
     1 OZ4         1 TEMP              0 ****  ****    0 ROOT
