@<TRIPOS>MOLECULE
OZ4
   65    71     1     0     0
SMALL
No Charge or Current Charge


@<TRIPOS>ATOM
      1 C1          -4.4510     0.1590     0.0610 c5         1 OZ4       0.123200
      2 O1           5.9620    -0.9000     0.4780 os         1 OZ4      -0.349100
      3 C2          -5.8290     0.7250     0.5170 c5         1 OZ4      -0.039700
      4 C3          -6.9340     0.8750    -0.5560 c3         1 OZ4      -0.082100
      5 N           -3.1800    -1.6860    -0.7570 ns         1 OZ4      -0.511900
      6 C           -4.4950    -1.2600    -0.6630 c          1 OZ4       0.540000
      7 O           -5.4400    -1.9290    -1.0560 o          1 OZ4      -0.555000
      8 C10         -0.7150    -1.5810    -0.3860 c6         1 OZ4      -0.000200
      9 C11          0.4460    -0.6280    -0.2670 cc         1 OZ4      -0.130400
     10 C12          0.3460     0.7560    -0.4050 cd         1 OZ4      -0.056300
     11 C13         -0.9490     1.5280    -0.6420 c6         1 OZ4       0.027200
     12 C14         -0.7610     2.4900    -1.8580 c3         1 OZ4      -0.085100
     13 C15         -1.1850     2.4570     0.6010 c3         1 OZ4      -0.085100
     14 C16          2.5130     0.2790    -0.0790 ca         1 OZ4       0.008800
     15 C17          1.8380    -0.9090    -0.0680 ca         1 OZ4      -0.122800
     16 C18          2.4890    -2.1360     0.1230 ca         1 OZ4      -0.026000
     17 C19          3.8870    -2.1200     0.3030 ca         1 OZ4      -0.167000
     18 C20          4.5940    -0.8960     0.2770 ca         1 OZ4       0.175100
     19 C21          3.9060     0.3270     0.0950 ca         1 OZ4      -0.167800
     20 C22          4.6820     1.5880     0.1280 ce         1 OZ4      -0.125200
     21 C23          6.0260     1.5390     0.1190 c2         1 OZ4      -0.261200
     22 C24          6.7670     0.2110     0.0120 c6         1 OZ4       0.229200
     23 C25          7.1230    -0.0710    -1.4720 c3         1 OZ4      -0.097600
     24 C26          8.0550     0.2280     0.8730 c3         1 OZ4      -0.097600
     25 C4          -6.1820    -0.2060     1.7190 c5         1 OZ4      -0.087400
     26 C5          -4.8010    -0.7010     2.2660 c5         1 OZ4       0.178800
     27 C6          -2.4440    -0.6640     1.3280 c6         1 OZ4       0.172800
     28 C7          -2.0770    -0.8650    -0.1930 c6         1 OZ4       0.115400
     29 C8          -2.1220     0.5100    -0.9730 c6         1 OZ4      -0.043700
     30 C9          -3.5810     1.1090    -0.8830 c6         1 OZ4      -0.056400
     31 N1          -3.7890     0.0100     1.4390 n3         1 OZ4      -0.753600
     32 N2           1.6350     1.3290    -0.2790 na         1 OZ4      -0.217700
     33 H1          -5.6680     1.7410     0.8970 hc         1 OZ4       0.053700
     34 H2          -7.2550    -0.0910    -0.9590 hc         1 OZ4       0.041700
     35 H3          -7.8210     1.3610    -0.1310 hc         1 OZ4       0.041700
     36 H4          -6.5890     1.4920    -1.3940 hc         1 OZ4       0.041700
     37 H5          -2.9960    -2.5920    -1.1700 hn         1 OZ4       0.317500
     38 H6          -0.6880    -2.0440    -1.3820 hc         1 OZ4       0.056200
     39 H7          -0.6210    -2.4080     0.3310 hc         1 OZ4       0.056200
     40 H8          -0.4780     1.9370    -2.7620 hc         1 OZ4       0.039700
     41 H9          -1.6830     3.0400    -2.0830 hc         1 OZ4       0.039700
     42 H10          0.0250     3.2330    -1.6740 hc         1 OZ4       0.039700
     43 H11         -0.2900     3.0500     0.8220 hc         1 OZ4       0.039700
     44 H12         -1.9880     3.1840     0.4400 hc         1 OZ4       0.039700
     45 H13         -1.4210     1.9080     1.5140 hc         1 OZ4       0.039700
     46 H14          1.9330    -3.0710     0.1350 ha         1 OZ4       0.116000
     47 H15          4.4200    -3.0540     0.4580 ha         1 OZ4       0.128000
     48 H16          4.1350     2.5310     0.1760 ha         1 OZ4       0.174000
     49 H17          6.6300     2.4470     0.1500 ha         1 OZ4       0.186000
     50 H18          6.2230    -0.0970    -2.0970 hc         1 OZ4       0.046867
     51 H19          7.7830     0.7060    -1.8750 hc         1 OZ4       0.046867
     52 H20          7.6360    -1.0340    -1.5820 hc         1 OZ4       0.046867
     53 H21          8.5830    -0.7320     0.8200 hc         1 OZ4       0.046867
     54 H22          8.7490     1.0080     0.5370 hc         1 OZ4       0.046867
     55 H23          7.8210     0.4240     1.9260 hc         1 OZ4       0.046867
     56 H24         -6.7540     0.3290     2.4860 hc         1 OZ4       0.055700
     57 H25         -6.7940    -1.0590     1.4060 hc         1 OZ4       0.055700
     58 H26         -4.6770    -0.4770     3.3350 h1         1 OZ4       0.038200
     59 H27         -4.7230    -1.7900     2.1460 h1         1 OZ4       0.038200
     60 H28         -2.4720    -1.6550     1.8050 h1         1 OZ4       0.050700
     61 H29         -1.6600    -0.1060     1.8530 h1         1 OZ4       0.050700
     62 H30         -1.9790     0.2300    -2.0270 hc         1 OZ4       0.060700
     63 H31         -4.0340     1.1490    -1.8830 hc         1 OZ4       0.057700
     64 H32         -3.6060     2.1340    -0.5020 hc         1 OZ4       0.057700
     65 H34          1.8670     2.3120    -0.3370 hn         1 OZ4       0.350000
@<TRIPOS>BOND
     1     1     3 1   
     2     1     6 1   
     3     1    30 1   
     4     1    31 1   
     5     2    18 1   
     6     2    22 1   
     7     3     4 1   
     8     3    25 1   
     9     3    33 1   
    10     4    34 1   
    11     4    35 1   
    12     4    36 1   
    13     5     6 1   
    14     5    28 1   
    15     5    37 1   
    16     6     7 2   
    17     8     9 1   
    18     8    28 1   
    19     8    38 1   
    20     8    39 1   
    21     9    10 2   
    22     9    15 1   
    23    10    11 1   
    24    10    32 1   
    25    11    12 1   
    26    11    13 1   
    27    11    29 1   
    28    12    40 1   
    29    12    41 1   
    30    12    42 1   
    31    13    43 1   
    32    13    44 1   
    33    13    45 1   
    34    14    15 ar  
    35    14    19 ar  
    36    14    32 1   
    37    15    16 ar  
    38    16    17 ar  
    39    16    46 1   
    40    17    18 ar  
    41    17    47 1   
    42    18    19 ar  
    43    19    20 1   
    44    20    21 2   
    45    20    48 1   
    46    21    22 1   
    47    21    49 1   
    48    22    23 1   
    49    22    24 1   
    50    23    50 1   
    51    23    51 1   
    52    23    52 1   
    53    24    53 1   
    54    24    54 1   
    55    24    55 1   
    56    25    26 1   
    57    25    56 1   
    58    25    57 1   
    59    26    31 1   
    60    26    58 1   
    61    26    59 1   
    62    27    28 1   
    63    27    31 1   
    64    27    60 1   
    65    27    61 1   
    66    28    29 1   
    67    29    30 1   
    68    29    62 1   
    69    30    63 1   
    70    30    64 1   
    71    32    65 1   
@<TRIPOS>SUBSTRUCTURE
     1 OZ4         1 TEMP              0 ****  ****    0 ROOT
