@<TRIPOS>MOLECULE
OZ5
   53    56     1     0     0
SMALL
No Charge or Current Charge


@<TRIPOS>ATOM
      1 C4           5.9470     6.2360   -10.5320 ca         1 OZ5      -0.109000
      2 C5           6.6810     7.3770   -10.1640 ca         1 OZ5       0.281900
      3 C6           5.7880     3.7520   -10.5960 ca         1 OZ5       0.449000
      4 C7           6.3820     2.5180   -10.2760 ca         1 OZ5      -0.241000
      5 C8           7.6520     2.5120    -9.6630 cp         1 OZ5       0.499500
      6 C10          8.6220     0.2190   -10.2230 ca         1 OZ5      -0.078000
      7 C13          9.6250    -0.0660    -7.6210 ca         1 OZ5      -0.100000
      8 C15          5.6870     1.2870   -10.4940 cg         1 OZ5       0.367000
      9 C22          5.2780     3.3270   -13.5840 c3         1 OZ5      -0.073400
     10 C24          4.1250     3.2400   -12.5420 c3         1 OZ5       0.058500
     11 C28         12.4750    -3.5150    -7.0940 ca         1 OZ5      -0.118300
     12 C1           8.3780     6.0740    -9.2890 ca         1 OZ5       0.338900
     13 C2           7.7230     4.8540    -9.6200 ca         1 OZ5       0.268000
     14 C3           6.4670     4.9430   -10.2580 ca         1 OZ5      -0.126000
     15 C9           8.3940     1.2600    -9.2860 cp         1 OZ5      -0.129500
     16 C11          9.3260    -0.9420    -9.8600 ca         1 OZ5      -0.100000
     17 C12          9.8440    -1.1080    -8.5540 cp         1 OZ5      -0.042000
     18 C14          8.9210     1.0950    -7.9810 ca         1 OZ5      -0.078000
     19 N16          7.8800     7.3120    -9.5490 nb         1 OZ5      -0.660000
     20 N17          8.2830     3.6570    -9.3350 nb         1 OZ5      -0.736000
     21 C18         10.5830    -2.3550    -8.1780 cp         1 OZ5      -0.050000
     22 N19          5.1350     0.2720   -10.6640 n1         1 OZ5      -0.510000
     23 N20          4.5280     3.8230   -11.2140 nu         1 OZ5      -0.885200
     24 C23          2.7810     3.8530   -13.1040 c          1 OZ5       0.714000
     25 O25          2.1260     3.1890   -13.8970 o          1 OZ5      -0.708500
     26 O26          2.3940     4.9230   -12.6450 o          1 OZ5      -0.708500
     27 C27         11.7970    -2.3240    -7.4390 ca         1 OZ5       0.168000
     28 C29         11.9400    -4.7550    -7.4910 ca         1 OZ5      -0.095000
     29 C30         10.7460    -4.8050    -8.2260 ca         1 OZ5      -0.126000
     30 C31         10.0760    -3.6190    -8.5670 ca         1 OZ5      -0.083000
     31 F32         12.3420    -1.1380    -7.0770 f          1 OZ5      -0.183000
     32 H1           4.9950     6.3830   -11.0330 ha         1 OZ5       0.139000
     33 H2           6.2960     8.3740   -10.3710 h4         1 OZ5       0.014100
     34 H3           8.2600     0.3170   -11.2440 ha         1 OZ5       0.128000
     35 H4           9.9940    -0.1640    -6.6030 ha         1 OZ5       0.112500
     36 H5           6.4390     4.7150   -14.8010 hc         1 OZ5       0.028367
     37 H6           4.7770     5.2560   -14.5000 hc         1 OZ5       0.028367
     38 H7           5.9990     5.3640   -13.2130 hc         1 OZ5       0.028367
     39 H8           4.9850     2.7470   -14.4680 hc         1 OZ5       0.042200
     40 H9           6.1760     2.8370   -13.1900 hc         1 OZ5       0.042200
     41 H10          3.9110     2.1730   -12.4030 h1         1 OZ5       0.073700
     42 H11          9.3480     6.0520    -8.7950 h4         1 OZ5       0.025100
     43 H12          9.4850    -1.7170   -10.6060 ha         1 OZ5       0.112500
     44 H13          8.7720     1.8760    -7.2370 ha         1 OZ5       0.128000
     45 H14          3.9980     4.6640   -10.9710 hn         1 OZ5       0.533000
     46 H16         12.4500    -5.6810    -7.2330 ha         1 OZ5       0.109000
     47 H17         10.3370    -5.7660    -8.5310 ha         1 OZ5       0.115000
     48 H18          9.1470    -3.6790    -9.1300 ha         1 OZ5       0.126000
     49 H19         14.5520    -2.9190    -6.8590 hc         1 OZ5       0.044367
     50 H20         13.6360    -2.9590    -5.3420 hc         1 OZ5       0.044367
     51 H21         14.1690    -4.4680    -6.0950 hc         1 OZ5       0.044367
     52 C33         13.7790    -3.4640    -6.3050 c3         1 OZ5      -0.037800
     53 C21          5.6410     4.7550   -14.0490 c3         1 OZ5      -0.085100
@<TRIPOS>BOND
     1     1     2 ar  
     2     1    14 ar  
     3     1    32 1   
     4     2    19 ar  
     5     2    33 1   
     6     3     4 ar  
     7     3    14 ar  
     8     3    23 1   
     9     4     5 ar  
    10     4     8 1   
    11     5    15 1   
    12     5    20 ar  
    13     6    15 ar  
    14     6    16 ar  
    15     6    34 1   
    16     7    17 ar  
    17     7    18 ar  
    18     7    35 1   
    19     8    22 3   
    20     9    10 1   
    21     9    39 1   
    22     9    40 1   
    23     9    53 1   
    24    10    23 1   
    25    10    24 1   
    26    10    41 1   
    27    11    27 ar  
    28    11    28 ar  
    29    11    52 1   
    30    12    13 ar  
    31    12    19 ar  
    32    12    42 1   
    33    13    14 ar  
    34    13    20 ar  
    35    15    18 ar  
    36    16    17 ar  
    37    16    43 1   
    38    17    21 1   
    39    18    44 1   
    40    21    27 ar  
    41    21    30 ar  
    42    23    45 1   
    43    24    25 1   
    44    24    26 1   
    45    27    31 1   
    46    28    29 ar  
    47    28    46 1   
    48    29    30 ar  
    49    29    47 1   
    50    30    48 1   
    51    36    53 1   
    52    37    53 1   
    53    38    53 1   
    54    49    52 1   
    55    50    52 1   
    56    51    52 1   
@<TRIPOS>SUBSTRUCTURE
     1 OZ5         1 TEMP              0 ****  ****    0 ROOT
