@<TRIPOS>MOLECULE
OZ5
   53    56     1     0     0
SMALL
abcg2


@<TRIPOS>ATOM
      1 C4           6.0160     6.4270   -10.3550 ca         1 OZ5      -0.109000
      2 C5           6.6590     7.4970    -9.7790 ca         1 OZ5       0.281900
      3 C6           5.8760     3.9250   -10.6580 ca         1 OZ5       0.449000
      4 C7           6.4680     2.7030   -10.2630 ca         1 OZ5      -0.241000
      5 C8           7.6840     2.6990    -9.5050 cp         1 OZ5       0.499500
      6 C10          8.6010     0.4670   -10.1960 ca         1 OZ5      -0.078000
      7 C13          9.5580     0.0170    -7.6300 ca         1 OZ5      -0.100000
      8 C15          5.7920     1.4740   -10.4570 cg         1 OZ5       0.367000
      9 C22          5.2320     2.6640   -13.4700 c3         1 OZ5      -0.073400
     10 C24          4.2230     3.1110   -12.3980 c3         1 OZ5       0.058500
     11 C28         12.3610    -3.4290    -7.2860 ca         1 OZ5      -0.118300
     12 C1           8.2140     6.1590    -8.7760 ca         1 OZ5       0.338900
     13 C2           7.6380     4.9850    -9.3140 ca         1 OZ5       0.268000
     14 C3           6.4910     5.1240   -10.1230 ca         1 OZ5      -0.126000
     15 C9           8.3790     1.4240    -9.2040 cp         1 OZ5      -0.129500
     16 C11          9.2990    -0.6960    -9.9090 ca         1 OZ5      -0.100000
     17 C12          9.7850    -0.9450    -8.6210 cp         1 OZ5      -0.042000
     18 C14          8.8710     1.1850    -7.9190 ca         1 OZ5      -0.078000
     19 N16          7.7490     7.3720    -8.9890 nb         1 OZ5      -0.660000
     20 N17          8.2420     3.7920    -9.0410 nb         1 OZ5      -0.736000
     21 C18         10.4950    -2.2110    -8.3300 cp         1 OZ5      -0.050000
     22 N19          5.2230     0.4730   -10.5550 n1         1 OZ5      -0.510000
     23 N20          4.8070     4.0450   -11.4410 nu         1 OZ5      -0.885200
     24 C23          3.0090     3.8310   -13.0560 c          1 OZ5       0.714000
     25 O25          2.2960     3.1200   -13.7960 o          1 OZ5      -0.708500
     26 O26          2.8610     5.0520   -12.7980 o          1 OZ5      -0.708500
     27 C27         11.6610    -2.2630    -7.5700 ca         1 OZ5       0.168000
     28 C29         11.8440    -4.6170    -7.7980 ca         1 OZ5      -0.095000
     29 C30         10.6820    -4.6190    -8.5640 ca         1 OZ5      -0.126000
     30 C31         10.0190    -3.4300    -8.8290 ca         1 OZ5      -0.083000
     31 F32         12.1820    -1.1010    -7.0900 f          1 OZ5      -0.183000
     32 H1           5.1560     6.6200   -10.9820 ha         1 OZ5       0.139000
     33 H2           6.3020     8.5060    -9.9490 h4         1 OZ5       0.014100
     34 H3           8.2550     0.6430   -11.2060 ha         1 OZ5       0.128000
     35 H4           9.9090    -0.1570    -6.6220 ha         1 OZ5       0.112500
     36 H5           6.5270     3.4440   -15.0200 hc         1 OZ5       0.028367
     37 H6           5.0420     4.3740   -14.8030 hc         1 OZ5       0.028367
     38 H7           6.3550     4.5200   -13.6330 hc         1 OZ5       0.028367
     39 H8           4.7070     1.9690   -14.1250 hc         1 OZ5       0.042200
     40 H9           6.0390     2.0990   -12.9980 hc         1 OZ5       0.042200
     41 H10          3.8310     2.2320   -11.8890 h1         1 OZ5       0.073700
     42 H11          9.0930     6.0530    -8.1490 h4         1 OZ5       0.025100
     43 H12          9.4840    -1.4120   -10.6990 ha         1 OZ5       0.112500
     44 H13          8.7010     1.9180    -7.1420 ha         1 OZ5       0.128000
     45 H14          4.3970     4.9630   -11.5860 hn         1 OZ5       0.533000
     46 H16         12.3620    -5.5450    -7.5910 ha         1 OZ5       0.109000
     47 H17         10.2920    -5.5510    -8.9510 ha         1 OZ5       0.115000
     48 H18          9.1100    -3.4350    -9.4150 ha         1 OZ5       0.126000
     49 H19         14.3800    -2.7620    -6.9480 hc         1 OZ5       0.044367
     50 H20         13.4380    -2.9660    -5.4790 hc         1 OZ5       0.044367
     51 H21         14.0290    -4.3900    -6.3500 hc         1 OZ5       0.044367
     52 C33         13.6230    -3.3870    -6.4700 c3         1 OZ5      -0.037800
     53 C21          5.8210     3.8180   -14.2770 c3         1 OZ5      -0.085100
@<TRIPOS>BOND
     1     1     2 ar  
     2     1    14 ar  
     3     1    32 1   
     4     2    19 ar  
     5     2    33 1   
     6     3     4 ar  
     7     3    14 ar  
     8     3    23 1   
     9     4     5 ar  
    10     4     8 1   
    11     5    15 1   
    12     5    20 ar  
    13     6    15 ar  
    14     6    16 ar  
    15     6    34 1   
    16     7    17 ar  
    17     7    18 ar  
    18     7    35 1   
    19     8    22 3   
    20     9    10 1   
    21     9    39 1   
    22     9    40 1   
    23     9    53 1   
    24    10    23 1   
    25    10    24 1   
    26    10    41 1   
    27    11    27 ar  
    28    11    28 ar  
    29    11    52 1   
    30    12    13 ar  
    31    12    19 ar  
    32    12    42 1   
    33    13    14 ar  
    34    13    20 ar  
    35    15    18 ar  
    36    16    17 ar  
    37    16    43 1   
    38    17    21 1   
    39    18    44 1   
    40    21    27 ar  
    41    21    30 ar  
    42    23    45 1   
    43    24    25 1   
    44    24    26 1   
    45    27    31 1   
    46    28    29 ar  
    47    28    46 1   
    48    29    30 ar  
    49    29    47 1   
    50    30    48 1   
    51    36    53 1   
    52    37    53 1   
    53    38    53 1   
    54    49    52 1   
    55    50    52 1   
    56    51    52 1   
@<TRIPOS>SUBSTRUCTURE
     1 OZ5         1 TEMP              0 ****  ****    0 ROOT
