@<TRIPOS>MOLECULE
OZ6
   79    81     1     0     0
SMALL
abcg2


@<TRIPOS>ATOM
      1 N1          19.7570    15.4530    27.3200 n          1 OZ6      -0.396800
      2 N3          17.7530     9.5690    28.4700 ns         1 OZ6      -0.516900
      3 C4          20.1740    14.8060    29.6680 c3         1 OZ6       0.045700
      4 C5          19.2810    14.8510    28.4260 c          1 OZ6       0.576100
      5 C6          21.0620    16.1180    27.1530 c5         1 OZ6       0.132000
      6 C7          20.9300    16.8930    25.8650 cx         1 OZ6      -0.122700
      7 C8          18.9140    15.5310    26.1240 c5         1 OZ6       0.063700
      8 C10         17.3160    12.4150    24.6200 c3         1 OZ6      -0.021300
      9 C13         17.5900    11.2240    26.8470 c5         1 OZ6      -0.157700
     10 C15         19.0780     9.5960    27.8600 c5         1 OZ6       0.101000
     11 C17         19.6100    16.5330    25.2280 cx         1 OZ6      -0.130700
     12 C22         18.6200    18.7270    32.2710 c3         1 OZ6       0.149400
     13 C24         17.3260    18.8600    33.0770 c3         1 OZ6      -0.104433
     14 C11         16.5110    12.5370    23.3400 c          1 OZ6       0.564900
     15 C12         16.6750    11.4970    25.6610 c3         1 OZ6      -0.064400
     16 C14         18.8250    10.3590    26.5510 c5         1 OZ6      -0.093400
     17 C16         16.8870    10.4710    27.9740 c          1 OZ6       0.561000
     18 C18         19.8440    17.9340    25.7410 cx         1 OZ6      -0.076000
     19 C19         19.1160    18.4760    26.9530 c3         1 OZ6      -0.065100
     20 C2          20.6670    13.3700    30.0070 c3         1 OZ6      -0.040000
     21 C23         18.6000    19.7240    31.1060 c3         1 OZ6      -0.104433
     22 C25         19.8240    18.9850    33.1860 c3         1 OZ6      -0.104433
     23 C3          21.3040    12.7590    28.7530 c3         1 OZ6      -0.088433
     24 C9          18.8410    14.1610    25.4440 c          1 OZ6       0.592100
     25 N2          17.5960    13.7380    25.1430 ns         1 OZ6      -0.491900
     26 N4          19.4600    15.4330    30.7660 ns         1 OZ6      -0.489900
     27 N5          18.6420    17.3420    31.7620 ns         1 OZ6      -0.523900
     28 O2          15.7420    10.6690    28.3750 o          1 OZ6      -0.560000
     29 O3          19.8560    13.5230    25.1840 o          1 OZ6      -0.602100
     30 O4          18.1430    14.3690    28.4530 o          1 OZ6      -0.635100
     31 O5          20.5880    17.4130    30.5630 o          1 OZ6      -0.657100
     32 H1          17.5430     9.0410    29.3050 hn         1 OZ6       0.325500
     33 H2          21.0590    15.4110    29.5060 h1         1 OZ6       0.093700
     34 H3          21.8640    15.3810    27.0720 h1         1 OZ6       0.070200
     35 H4          21.2630    16.7590    28.0120 h1         1 OZ6       0.070200
     36 H5          21.8230    17.0040    25.2650 hc         1 OZ6       0.101700
     37 H6          17.9120    15.8490    26.4170 h1         1 OZ6       0.081700
     38 H7          18.2840    12.0070    24.3040 h1         1 OZ6       0.100700
     39 H8          17.8980    12.1770    27.2930 hc         1 OZ6       0.095700
     40 H9          19.4470     8.5850    27.6920 h1         1 OZ6       0.045200
     41 H10         19.7870    10.1200    28.5040 h1         1 OZ6       0.045200
     42 H11         19.5230    16.3810    24.1600 hc         1 OZ6       0.102700
     43 H12         20.6580    19.8100    25.0590 hc         1 OZ6       0.042533
     44 H13         20.5980    18.5600    23.8090 hc         1 OZ6       0.042533
     45 H14         19.1140    19.3790    24.3140 hc         1 OZ6       0.042533
     46 H15         17.3080    18.1480    33.9050 hc         1 OZ6       0.045589
     47 H16         17.2490    19.8660    33.4890 hc         1 OZ6       0.045589
     48 H17         16.4550    18.6790    32.4430 hc         1 OZ6       0.045589
     49 H18         21.3230    13.9620    31.9990 hc         1 OZ6       0.040700
     50 H19         22.1090    12.5050    31.3750 hc         1 OZ6       0.040700
     51 H20         22.5780    14.0960    30.7570 hc         1 OZ6       0.040700
     52 H21         19.0790    12.8580    31.4120 hc         1 OZ6       0.040700
     53 H22         18.7570    12.3450    29.7510 hc         1 OZ6       0.040700
     54 H23         19.9400    11.4760    30.7390 hc         1 OZ6       0.040700
     55 H24         16.7590    13.4280    22.7330 h4         1 OZ6      -0.002800
     56 H25         15.7470    11.9540    26.0140 hc         1 OZ6       0.071200
     57 H26         16.4090    10.5570    25.1750 hc         1 OZ6       0.071200
     58 H27         18.5880     9.6530    25.7520 hc         1 OZ6       0.063200
     59 H28         19.6880    10.9440    26.2440 hc         1 OZ6       0.063200
     60 H29         18.9460    17.7340    27.7300 hc         1 OZ6       0.042533
     61 H30         19.6900    19.2930    27.3970 hc         1 OZ6       0.042533
     62 H31         18.1440    18.8780    26.6560 hc         1 OZ6       0.042533
     63 H32         18.5190    20.7410    31.4930 hc         1 OZ6       0.045589
     64 H33         19.5090    19.6460    30.5140 hc         1 OZ6       0.045589
     65 H34         17.7420    19.5300    30.4590 hc         1 OZ6       0.045589
     66 H35         19.8220    18.2830    34.0220 hc         1 OZ6       0.045589
     67 H36         20.7580    18.8730    32.6380 hc         1 OZ6       0.045589
     68 H37         19.7750    19.9990    33.5880 hc         1 OZ6       0.045589
     69 H38         21.7140    11.7750    28.9870 hc         1 OZ6       0.040700
     70 H39         20.5780    12.6350    27.9480 hc         1 OZ6       0.040700
     71 H40         22.1210    13.3830    28.3820 hc         1 OZ6       0.040700
     72 H41         16.8170    14.2750    25.4970 hn         1 OZ6       0.322500
     73 H42         18.5490    15.0460    30.9600 hn         1 OZ6       0.306500
     74 H43         17.9260    16.7280    32.1170 hn         1 OZ6       0.308500
     75 C20         20.0680    18.9780    24.6660 c3         1 OZ6      -0.065100
     76 C21         19.6190    16.7860    31.0010 c          1 OZ6       0.640100
     77 C26         21.7340    13.4940    31.1030 c3         1 OZ6      -0.088433
     78 C1          19.5350    12.4630    30.5030 c3         1 OZ6      -0.088433
     79 O1          15.6820    11.7410    22.9730 o          1 OZ6      -0.503100
@<TRIPOS>BOND
     1     1     4 1   
     2     1     5 1   
     3     1     7 1   
     4     2    10 1   
     5     2    17 1   
     6     2    32 1   
     7     3     4 1   
     8     3    20 1   
     9     3    26 1   
    10     3    33 1   
    11     4    30 2   
    12     5     6 1   
    13     5    34 1   
    14     5    35 1   
    15     6    11 1   
    16     6    18 1   
    17     6    36 1   
    18     7    11 1   
    19     7    24 1   
    20     7    37 1   
    21     8    14 1   
    22     8    15 1   
    23     8    25 1   
    24     8    38 1   
    25     9    15 1   
    26     9    16 1   
    27     9    17 1   
    28     9    39 1   
    29    10    16 1   
    30    10    40 1   
    31    10    41 1   
    32    11    18 1   
    33    11    42 1   
    34    12    13 1   
    35    12    21 1   
    36    12    22 1   
    37    12    27 1   
    38    13    46 1   
    39    13    47 1   
    40    13    48 1   
    41    14    55 1   
    42    14    79 2   
    43    15    56 1   
    44    15    57 1   
    45    16    58 1   
    46    16    59 1   
    47    17    28 2   
    48    18    19 1   
    49    18    75 1   
    50    19    60 1   
    51    19    61 1   
    52    19    62 1   
    53    20    23 1   
    54    20    77 1   
    55    20    78 1   
    56    21    63 1   
    57    21    64 1   
    58    21    65 1   
    59    22    66 1   
    60    22    67 1   
    61    22    68 1   
    62    23    69 1   
    63    23    70 1   
    64    23    71 1   
    65    24    25 1   
    66    24    29 2   
    67    25    72 1   
    68    26    73 1   
    69    26    76 1   
    70    27    74 1   
    71    27    76 1   
    72    31    76 2   
    73    43    75 1   
    74    44    75 1   
    75    45    75 1   
    76    49    77 1   
    77    50    77 1   
    78    51    77 1   
    79    52    78 1   
    80    53    78 1   
    81    54    78 1   
@<TRIPOS>SUBSTRUCTURE
     1 OZ6         1 TEMP              0 ****  ****    0 ROOT
