@<TRIPOS>MOLECULE
OZ6
   79    81     1     0     0
SMALL
No Charge or Current Charge


@<TRIPOS>ATOM
      1 N1          20.3600    15.4580    27.2830 n          1 OZ6      -0.396800
      2 N3          15.7520    10.8360    28.7090 ns         1 OZ6      -0.516900
      3 C4          20.9180    15.0510    29.7630 c3         1 OZ6       0.045700
      4 C5          19.9050    15.0650    28.5610 c          1 OZ6       0.576100
      5 C6          21.4560    16.4390    27.1060 c5         1 OZ6       0.132000
      6 C7          21.3820    16.8240    25.6220 cx         1 OZ6      -0.122700
      7 C8          19.4760    15.3110    26.0860 c5         1 OZ6       0.063700
      8 C10         17.5640    12.4150    24.4440 c3         1 OZ6      -0.021300
      9 C13         16.5940    11.9030    26.8310 c5         1 OZ6      -0.157700
     10 C15         17.1870    10.5660    28.7360 c5         1 OZ6       0.101000
     11 C17         20.1890    16.1450    25.0040 cx         1 OZ6      -0.130700
     12 C22         18.0410    17.9100    32.7050 c3         1 OZ6       0.149400
     13 C24         17.5860    17.6230    34.1550 c3         1 OZ6      -0.104433
     14 C11         17.2590    12.4700    22.9240 c          1 OZ6       0.564900
     15 C12         16.3210    12.0550    25.3070 c3         1 OZ6      -0.064400
     16 C14         17.5320    10.7290    27.2300 c5         1 OZ6      -0.093400
     17 C16         15.3390    11.6190    27.6650 c          1 OZ6       0.561000
     18 C18         20.1870    17.6570    25.1790 cx         1 OZ6      -0.076000
     19 C19         19.2620    18.3730    26.1790 c3         1 OZ6      -0.065100
     20 C2          21.7020    13.6980    29.9370 c3         1 OZ6      -0.040000
     21 C23         16.7910    18.0240    31.7960 c3         1 OZ6      -0.104433
     22 C25         18.8510    19.2300    32.6810 c3         1 OZ6      -0.104433
     23 C3          22.6110    13.4320    28.7070 c3         1 OZ6      -0.088433
     24 C9          19.2930    13.8210    25.6570 c          1 OZ6       0.592100
     25 N2          18.1540    13.7020    24.8810 ns         1 OZ6      -0.491900
     26 N4          20.1970    15.4490    30.9890 ns         1 OZ6      -0.489900
     27 N5          18.8810    16.7810    32.2860 ns         1 OZ6      -0.523900
     28 O2          14.1630    11.8020    27.3930 o          1 OZ6      -0.560000
     29 O3          20.0280    12.8750    25.9110 o          1 OZ6      -0.602100
     30 O4          18.7530    14.6520    28.6880 o          1 OZ6      -0.635100
     31 O5          19.4410    17.3990    30.1370 o          1 OZ6      -0.657100
     32 H1          15.0590    10.4540    29.3420 hn         1 OZ6       0.325500
     33 H2          21.6580    15.8380    29.5790 h1         1 OZ6       0.093700
     34 H3          22.4190    15.9770    27.3520 h1         1 OZ6       0.070200
     35 H4          21.3320    17.3060    27.7700 h1         1 OZ6       0.070200
     36 H5          22.3000    16.8990    25.0450 hc         1 OZ6       0.101700
     37 H6          18.4750    15.7060    26.3040 h1         1 OZ6       0.081700
     38 H7          18.3120    11.6200    24.5610 h1         1 OZ6       0.100700
     39 H8          17.0240    12.8300    27.2280 hc         1 OZ6       0.095700
     40 H9          17.4280     9.5610    29.1080 h1         1 OZ6       0.045200
     41 H10         17.7200    11.3030    29.3530 h1         1 OZ6       0.045200
     42 H11         20.2800    15.7500    23.9940 hc         1 OZ6       0.102700
     43 H12         20.7780    19.4950    24.1720 hc         1 OZ6       0.042533
     44 H13         20.9970    18.0420    23.1870 hc         1 OZ6       0.042533
     45 H14         19.3720    18.6930    23.4450 hc         1 OZ6       0.042533
     46 H15         18.4480    17.5310    34.8260 hc         1 OZ6       0.045589
     47 H16         16.9490    18.4320    34.5340 hc         1 OZ6       0.045589
     48 H17         17.0120    16.6900    34.2090 hc         1 OZ6       0.045589
     49 H18         22.0330    13.8570    32.1170 hc         1 OZ6       0.040700
     50 H19         23.2390    12.8730    31.2810 hc         1 OZ6       0.040700
     51 H20         23.2890    14.6390    31.1370 hc         1 OZ6       0.040700
     52 H21         20.0390    12.6540    30.9410 hc         1 OZ6       0.040700
     53 H22         20.1290    12.3430    29.1960 hc         1 OZ6       0.040700
     54 H23         21.2800    11.5700    30.2910 hc         1 OZ6       0.040700
     55 H24         18.1520    12.4030    22.2640 h4         1 OZ6      -0.002800
     56 H25         15.5590    12.8300    25.1560 hc         1 OZ6       0.071200
     57 H26         15.8840    11.1240    24.9240 hc         1 OZ6       0.071200
     58 H27         17.2860     9.8150    26.6750 hc         1 OZ6       0.063200
     59 H28         18.5940    10.9390    27.0660 hc         1 OZ6       0.063200
     60 H29         19.1020    17.8210    27.1110 hc         1 OZ6       0.042533
     61 H30         19.6750    19.3510    26.4550 hc         1 OZ6       0.042533
     62 H31         18.2740    18.5450    25.7370 hc         1 OZ6       0.042533
     63 H32         16.1130    18.8030    32.1650 hc         1 OZ6       0.045589
     64 H33         17.0620    18.2840    30.7670 hc         1 OZ6       0.045589
     65 H34         16.2380    17.0770    31.7730 hc         1 OZ6       0.045589
     66 H35         19.7610    19.1390    33.2870 hc         1 OZ6       0.045589
     67 H36         19.1470    19.5040    31.6630 hc         1 OZ6       0.045589
     68 H37         18.2560    20.0580    33.0860 hc         1 OZ6       0.045589
     69 H38         23.1770    12.5000    28.8330 hc         1 OZ6       0.040700
     70 H39         22.0250    13.3350    27.7870 hc         1 OZ6       0.040700
     71 H40         23.3360    14.2430    28.5710 hc         1 OZ6       0.040700
     72 H41         17.6350    14.5570    24.7030 hn         1 OZ6       0.322500
     73 H42         20.1860    14.8260    31.7840 hn         1 OZ6       0.306500
     74 H43         19.0220    16.0410    32.9580 hn         1 OZ6       0.308500
     75 C20         20.3420    18.5190    23.9270 c3         1 OZ6      -0.065100
     76 C21         19.4940    16.6150    31.0690 c          1 OZ6       0.640100
     77 C26         22.6170    13.7730    31.1930 c3         1 OZ6      -0.088433
     78 C1          20.7270    12.4980    30.1010 c3         1 OZ6      -0.088433
     79 O1          16.1330    12.5790    22.4470 o          1 OZ6      -0.503100
@<TRIPOS>BOND
     1     1     4 1   
     2     1     5 1   
     3     1     7 1   
     4     2    10 1   
     5     2    17 1   
     6     2    32 1   
     7     3     4 1   
     8     3    20 1   
     9     3    26 1   
    10     3    33 1   
    11     4    30 2   
    12     5     6 1   
    13     5    34 1   
    14     5    35 1   
    15     6    11 1   
    16     6    18 1   
    17     6    36 1   
    18     7    11 1   
    19     7    24 1   
    20     7    37 1   
    21     8    14 1   
    22     8    15 1   
    23     8    25 1   
    24     8    38 1   
    25     9    15 1   
    26     9    16 1   
    27     9    17 1   
    28     9    39 1   
    29    10    16 1   
    30    10    40 1   
    31    10    41 1   
    32    11    18 1   
    33    11    42 1   
    34    12    13 1   
    35    12    21 1   
    36    12    22 1   
    37    12    27 1   
    38    13    46 1   
    39    13    47 1   
    40    13    48 1   
    41    14    55 1   
    42    14    79 2   
    43    15    56 1   
    44    15    57 1   
    45    16    58 1   
    46    16    59 1   
    47    17    28 2   
    48    18    19 1   
    49    18    75 1   
    50    19    60 1   
    51    19    61 1   
    52    19    62 1   
    53    20    23 1   
    54    20    77 1   
    55    20    78 1   
    56    21    63 1   
    57    21    64 1   
    58    21    65 1   
    59    22    66 1   
    60    22    67 1   
    61    22    68 1   
    62    23    69 1   
    63    23    70 1   
    64    23    71 1   
    65    24    25 1   
    66    24    29 2   
    67    25    72 1   
    68    26    73 1   
    69    26    76 1   
    70    27    74 1   
    71    27    76 1   
    72    31    76 2   
    73    43    75 1   
    74    44    75 1   
    75    45    75 1   
    76    49    77 1   
    77    50    77 1   
    78    51    77 1   
    79    52    78 1   
    80    53    78 1   
    81    54    78 1   
@<TRIPOS>SUBSTRUCTURE
     1 OZ6         1 TEMP              0 ****  ****    0 ROOT
