@<TRIPOS>MOLECULE
OZ7
   66    72     1     0     0
SMALL
No Charge or Current Charge


@<TRIPOS>ATOM
      1 C1          -4.6360     0.0770     0.1800 c5         1 OZ7       0.122200
      2 C2          -5.9890     0.5740     0.7690 c5         1 OZ7      -0.039700
      3 O1           4.2710     1.6060    -0.1970 os         1 OZ7      -0.251200
      4 N           -3.4050    -1.6490    -0.9130 ns         1 OZ7      -0.511900
      5 C           -4.7140    -1.2480    -0.7030 c          1 OZ7       0.541000
      6 O           -5.6770    -1.8750    -1.1210 o          1 OZ7      -0.555000
      7 C10         -0.9240    -1.5670    -0.6610 c6         1 OZ7       0.001800
      8 C11          0.2390    -0.6240    -0.4910 cc         1 OZ7      -0.144400
      9 C12          0.1280     0.7660    -0.4620 cd         1 OZ7      -0.045300
     10 C13         -1.1790     1.5490    -0.5390 c6         1 OZ7       0.025200
     11 C14         -1.0580     2.6480    -1.6420 c3         1 OZ7      -0.085100
     12 C15         -1.3520     2.3240     0.8150 c3         1 OZ7      -0.085100
     13 C16          2.3120     0.2700    -0.3010 ca         1 OZ7      -0.042200
     14 C17          1.6400    -0.9130    -0.3990 ca         1 OZ7      -0.081800
     15 C18          2.3050    -2.1420    -0.4200 ca         1 OZ7      -0.067000
     16 C19          3.7090    -2.1270    -0.3190 ca         1 OZ7      -0.131000
     17 C20          4.4230    -0.9100    -0.1970 ca         1 OZ7       0.090100
     18 C21          3.7150     0.3340    -0.2050 ca         1 OZ7       0.066100
     19 C22          5.6020     1.9350    -0.2180 c2         1 OZ7       0.008100
     20 C23          6.6220     1.1730     0.1960 c2         1 OZ7      -0.339200
     21 C24          6.5680    -0.2020     0.8040 c3         1 OZ7       0.239200
     22 C25          5.9490    -0.2060     2.2250 c3         1 OZ7      -0.095600
     23 C26          7.9710    -0.8480     0.8250 c3         1 OZ7      -0.095600
     24 C3          -7.1490     0.8390    -0.2200 c3         1 OZ7      -0.082100
     25 C4          -6.2760    -0.4930     1.8710 c5         1 OZ7      -0.087400
     26 C5          -4.8670    -1.0370     2.2850 c5         1 OZ7       0.178800
     27 C6          -2.5630    -0.8720     1.2350 c6         1 OZ7       0.172800
     28 C7          -2.2760    -0.8900    -0.3160 c6         1 OZ7       0.115400
     29 C8          -2.3650     0.5670    -0.9260 c6         1 OZ7      -0.044700
     30 C9          -3.8190     1.1380    -0.6900 c6         1 OZ7      -0.056400
     31 N1          -3.9010    -0.2260     1.4950 n3         1 OZ7      -0.753600
     32 N2           1.4210     1.3290    -0.3380 na         1 OZ7      -0.203700
     33 O2           5.7870    -1.0340    -0.0600 os         1 OZ7      -0.356100
     34 H1          -5.8110     1.5400     1.2570 hc         1 OZ7       0.053700
     35 H2          -3.2410    -2.4990    -1.4390 hn         1 OZ7       0.318500
     36 H3          -0.9480    -1.9100    -1.7050 hc         1 OZ7       0.055700
     37 H4          -0.7900    -2.4710    -0.0520 hc         1 OZ7       0.055700
     38 H5          -0.8210     2.2070    -2.6180 hc         1 OZ7       0.040367
     39 H6          -1.9910     3.2120    -1.7530 hc         1 OZ7       0.040367
     40 H7          -0.2660     3.3710    -1.4130 hc         1 OZ7       0.040367
     41 H8          -0.4480     2.8940     1.0580 hc         1 OZ7       0.040367
     42 H9          -2.1640     3.0580     0.7820 hc         1 OZ7       0.040367
     43 H10         -1.5390     1.6700     1.6680 hc         1 OZ7       0.040367
     44 H11          1.7580    -3.0780    -0.5080 ha         1 OZ7       0.118000
     45 H12          4.2540    -3.0680    -0.3200 ha         1 OZ7       0.125000
     46 H13          5.7710     2.9400    -0.6110 h4         1 OZ7       0.208000
     47 H14          7.6310     1.5800     0.1240 ha         1 OZ7       0.186000
     48 H15          4.9750     0.2940     2.2450 hc         1 OZ7       0.046367
     49 H16          5.8170    -1.2320     2.5890 hc         1 OZ7       0.046367
     50 H17          6.6050     0.3220     2.9260 hc         1 OZ7       0.046367
     51 H18          8.6540    -0.2750     1.4640 hc         1 OZ7       0.046367
     52 H19          7.9230    -1.8720     1.2130 hc         1 OZ7       0.046367
     53 H20          8.3990    -0.8840    -0.1850 hc         1 OZ7       0.046367
     54 H21         -7.4890    -0.0760    -0.7160 hc         1 OZ7       0.042033
     55 H22         -8.0130     1.2650     0.3040 hc         1 OZ7       0.042033
     56 H23         -6.8500     1.5530    -0.9970 hc         1 OZ7       0.042033
     57 H24         -6.8080    -0.0560     2.7230 hc         1 OZ7       0.055700
     58 H25         -6.9020    -1.3090     1.4930 hc         1 OZ7       0.055700
     59 H26         -4.6880    -0.9380     3.3640 h1         1 OZ7       0.038700
     60 H27         -4.7930    -2.1040     2.0340 h1         1 OZ7       0.038700
     61 H28         -2.5640    -1.9120     1.5940 h1         1 OZ7       0.049700
     62 H29         -1.7540    -0.3720     1.7810 h1         1 OZ7       0.049700
     63 H30         -2.2770     0.4120    -2.0110 hc         1 OZ7       0.061700
     64 H31         -4.3250     1.2900    -1.6530 hc         1 OZ7       0.057700
     65 H32         -3.8260     2.1120    -0.1910 hc         1 OZ7       0.057700
     66 H34          1.6540     2.3140    -0.2890 hn         1 OZ7       0.360000
@<TRIPOS>BOND
     1     1     2 1   
     2     1     5 1   
     3     1    30 1   
     4     1    31 1   
     5     2    24 1   
     6     2    25 1   
     7     2    34 1   
     8     3    18 1   
     9     3    19 1   
    10     4     5 1   
    11     4    28 1   
    12     4    35 1   
    13     5     6 2   
    14     7     8 1   
    15     7    28 1   
    16     7    36 1   
    17     7    37 1   
    18     8     9 2   
    19     8    14 1   
    20     9    10 1   
    21     9    32 1   
    22    10    11 1   
    23    10    12 1   
    24    10    29 1   
    25    11    38 1   
    26    11    39 1   
    27    11    40 1   
    28    12    41 1   
    29    12    42 1   
    30    12    43 1   
    31    13    14 ar  
    32    13    18 ar  
    33    13    32 1   
    34    14    15 ar  
    35    15    16 ar  
    36    15    44 1   
    37    16    17 ar  
    38    16    45 1   
    39    17    18 ar  
    40    17    33 1   
    41    19    20 2   
    42    19    46 1   
    43    20    21 1   
    44    20    47 1   
    45    21    22 1   
    46    21    23 1   
    47    21    33 1   
    48    22    48 1   
    49    22    49 1   
    50    22    50 1   
    51    23    51 1   
    52    23    52 1   
    53    23    53 1   
    54    24    54 1   
    55    24    55 1   
    56    24    56 1   
    57    25    26 1   
    58    25    57 1   
    59    25    58 1   
    60    26    31 1   
    61    26    59 1   
    62    26    60 1   
    63    27    28 1   
    64    27    31 1   
    65    27    61 1   
    66    27    62 1   
    67    28    29 1   
    68    29    30 1   
    69    29    63 1   
    70    30    64 1   
    71    30    65 1   
    72    32    66 1   
@<TRIPOS>SUBSTRUCTURE
     1 OZ7         1 TEMP              0 ****  ****    0 ROOT
