@<TRIPOS>MOLECULE
OZ7
   66    72     1     0     0
SMALL
abcg2


@<TRIPOS>ATOM
      1 C1          -4.5320     0.0890     0.1480 c5         1 OZ7       0.122200
      2 C2          -5.8340     0.6510     0.7100 c5         1 OZ7      -0.039700
      3 O1           4.1810     1.6340    -0.4070 os         1 OZ7      -0.251200
      4 N           -3.3720    -1.6640    -0.8750 ns         1 OZ7      -0.511900
      5 C           -4.6210    -1.2580    -0.5720 c          1 OZ7       0.541000
      6 O           -5.6280    -1.9040    -0.8250 o          1 OZ7      -0.555000
      7 C10         -0.9460    -1.6140    -0.6540 c6         1 OZ7       0.001800
      8 C11          0.2000    -0.6680    -0.5570 cc         1 OZ7      -0.144400
      9 C12          0.0740     0.6910    -0.5740 cd         1 OZ7      -0.045300
     10 C13         -1.1920     1.4880    -0.6370 c6         1 OZ7       0.025200
     11 C14         -1.1140     2.5190    -1.7750 c3         1 OZ7      -0.085100
     12 C15         -1.3690     2.2620     0.6800 c3         1 OZ7      -0.085100
     13 C16          2.2630     0.2810    -0.4430 ca         1 OZ7      -0.042200
     14 C17          1.5990    -0.9610    -0.4750 ca         1 OZ7      -0.081800
     15 C18          2.3550    -2.1360    -0.4220 ca         1 OZ7      -0.067000
     16 C19          3.7280    -2.0400    -0.3380 ca         1 OZ7      -0.131000
     17 C20          4.3840    -0.7960    -0.3300 ca         1 OZ7       0.090100
     18 C21          3.6520     0.3790    -0.3750 ca         1 OZ7       0.066100
     19 C22          5.2460     1.9990     0.3520 c2         1 OZ7       0.008100
     20 C23          6.1850     1.2480     0.9130 c2         1 OZ7      -0.339200
     21 C24          6.4090    -0.2340     0.8150 c3         1 OZ7       0.239200
     22 C25          5.9540    -0.9390     2.0910 c3         1 OZ7      -0.095600
     23 C26          7.8900    -0.4970     0.5650 c3         1 OZ7      -0.095600
     24 C3          -7.0210     0.7750    -0.2300 c3         1 OZ7      -0.082100
     25 C4          -6.0610    -0.2130     1.9540 c5         1 OZ7      -0.087400
     26 C5          -4.6450    -0.5850     2.4280 c5         1 OZ7       0.178800
     27 C6          -2.5150    -0.8320     1.1800 c6         1 OZ7       0.172800
     28 C7          -2.2530    -0.9020    -0.3290 c6         1 OZ7       0.115400
     29 C8          -2.3320     0.4940    -0.9920 c6         1 OZ7      -0.044700
     30 C9          -3.7570     1.0420    -0.7610 c6         1 OZ7      -0.056400
     31 N1          -3.7530    -0.1110     1.3760 n3         1 OZ7      -0.753600
     32 N2           1.3210     1.2640    -0.5010 na         1 OZ7      -0.203700
     33 O2           5.7420    -0.7770    -0.3350 os         1 OZ7      -0.356100
     34 H1          -5.5750     1.6610     1.0490 hc         1 OZ7       0.053700
     35 H2          -3.2230    -2.5940    -1.2430 hn         1 OZ7       0.318500
     36 H3          -1.0080    -2.0280    -1.6670 hc         1 OZ7       0.055700
     37 H4          -0.8150    -2.4670     0.0180 hc         1 OZ7       0.055700
     38 H5          -0.9200     2.0420    -2.7360 hc         1 OZ7       0.040367
     39 H6          -2.0540     3.0670    -1.8530 hc         1 OZ7       0.040367
     40 H7          -0.3280     3.2560    -1.5990 hc         1 OZ7       0.040367
     41 H8          -0.5050     2.9090     0.8490 hc         1 OZ7       0.040367
     42 H9          -2.2420     2.9120     0.6470 hc         1 OZ7       0.040367
     43 H10         -1.4660     1.6120     1.5460 hc         1 OZ7       0.040367
     44 H11          1.8780    -3.1080    -0.4410 ha         1 OZ7       0.118000
     45 H12          4.3390    -2.9320    -0.2920 ha         1 OZ7       0.125000
     46 H13          5.2630     3.0760     0.4650 h4         1 OZ7       0.208000
     47 H14          6.9130     1.7960     1.5000 ha         1 OZ7       0.186000
     48 H15          4.8880    -0.7950     2.2740 hc         1 OZ7       0.046367
     49 H16          6.1560    -2.0100     2.0370 hc         1 OZ7       0.046367
     50 H17          6.4920    -0.5350     2.9490 hc         1 OZ7       0.046367
     51 H18          8.4850    -0.1210     1.3960 hc         1 OZ7       0.046367
     52 H19          8.0810    -1.5670     0.4700 hc         1 OZ7       0.046367
     53 H20          8.2280     0.0010    -0.3450 hc         1 OZ7       0.046367
     54 H21         -7.4010    -0.1940    -0.5440 hc         1 OZ7       0.042033
     55 H22         -7.8310     1.3130     0.2650 hc         1 OZ7       0.042033
     56 H23         -6.7580     1.3420    -1.1240 hc         1 OZ7       0.042033
     57 H24         -6.6320     0.3150     2.7180 hc         1 OZ7       0.055700
     58 H25         -6.6230    -1.1090     1.6880 hc         1 OZ7       0.055700
     59 H26         -4.3880    -0.1150     3.3810 h1         1 OZ7       0.038700
     60 H27         -4.5560    -1.6690     2.5790 h1         1 OZ7       0.038700
     61 H28         -2.5840    -1.8650     1.5500 h1         1 OZ7       0.049700
     62 H29         -1.6830    -0.3650     1.7140 h1         1 OZ7       0.049700
     63 H30         -2.2130     0.2910    -2.0610 hc         1 OZ7       0.061700
     64 H31         -4.2810     1.1720    -1.7100 hc         1 OZ7       0.057700
     65 H32         -3.7430     2.0180    -0.2760 hc         1 OZ7       0.057700
     66 H34          1.5110     2.2520    -0.4890 hn         1 OZ7       0.360000
@<TRIPOS>BOND
     1     1     2 1   
     2     1     5 1   
     3     1    30 1   
     4     1    31 1   
     5     2    24 1   
     6     2    25 1   
     7     2    34 1   
     8     3    18 1   
     9     3    19 1   
    10     4     5 1   
    11     4    28 1   
    12     4    35 1   
    13     5     6 2   
    14     7     8 1   
    15     7    28 1   
    16     7    36 1   
    17     7    37 1   
    18     8     9 2   
    19     8    14 1   
    20     9    10 1   
    21     9    32 1   
    22    10    11 1   
    23    10    12 1   
    24    10    29 1   
    25    11    38 1   
    26    11    39 1   
    27    11    40 1   
    28    12    41 1   
    29    12    42 1   
    30    12    43 1   
    31    13    14 ar  
    32    13    18 ar  
    33    13    32 1   
    34    14    15 ar  
    35    15    16 ar  
    36    15    44 1   
    37    16    17 ar  
    38    16    45 1   
    39    17    18 ar  
    40    17    33 1   
    41    19    20 2   
    42    19    46 1   
    43    20    21 1   
    44    20    47 1   
    45    21    22 1   
    46    21    23 1   
    47    21    33 1   
    48    22    48 1   
    49    22    49 1   
    50    22    50 1   
    51    23    51 1   
    52    23    52 1   
    53    23    53 1   
    54    24    54 1   
    55    24    55 1   
    56    24    56 1   
    57    25    26 1   
    58    25    57 1   
    59    25    58 1   
    60    26    31 1   
    61    26    59 1   
    62    26    60 1   
    63    27    28 1   
    64    27    31 1   
    65    27    61 1   
    66    27    62 1   
    67    28    29 1   
    68    29    30 1   
    69    29    63 1   
    70    30    64 1   
    71    30    65 1   
    72    32    66 1   
@<TRIPOS>SUBSTRUCTURE
     1 OZ7         1 TEMP              0 ****  ****    0 ROOT
