@<TRIPOS>MOLECULE
OZ8
   50    53     1     0     0
SMALL
abcg2


@<TRIPOS>ATOM
      1 C1          16.0500    11.0700    78.8840 c3         1 OZ8      -0.047100
      2 C2          15.4480     9.7480    79.2720 ca         1 OZ8      -0.082300
      3 C3          16.1970     8.5780    79.1520 ca         1 OZ8      -0.108000
      4 C4          15.6490     7.3450    79.4750 ca         1 OZ8      -0.107000
      5 C5          14.3380     7.2630    79.9290 ca         1 OZ8      -0.108000
      6 C7          14.1360     9.6530    79.7260 ca         1 OZ8      -0.108000
      7 C9          14.7250    11.4010    76.7300 c5         1 OZ8      -0.089400
      8 C6          13.5840     8.4210    80.0560 ca         1 OZ8      -0.107000
      9 C8          16.1110    11.2280    77.3590 c5         1 OZ8       0.245500
     10 C10         14.9620    12.3220    75.5430 c5         1 OZ8      -0.096400
     11 C11         16.0250    13.2790    76.0610 c5         1 OZ8       0.216800
     12 N12         16.8250    12.4340    76.9440 nh         1 OZ8      -0.714400
     13 C13         18.1600    12.5740    77.1000 cc         1 OZ8       0.364600
     14 N14         18.7020    13.7790    76.7880 ns         1 OZ8      -0.405100
     15 C15         20.0610    14.0830    76.8590 c          1 OZ8       0.589200
     16 C16         20.8940    13.0420    77.3320 cc         1 OZ8      -0.476200
     17 C17         20.3800    11.8030    77.7090 cd         1 OZ8       0.311000
     18 C18         18.9890    11.5670    77.5530 cd         1 OZ8      -0.447000
     19 N19         21.1820    10.8190    78.2290 nh         1 OZ8      -0.661400
     20 C20         22.6200    10.8700    78.0180 c6         1 OZ8       0.175300
     21 C21         23.3570    10.0120    79.0280 c6         1 OZ8       0.141600
     22 O22         22.8800     8.6900    79.0490 os         1 OZ8      -0.440000
     23 C23         21.5180     8.6890    79.3940 c6         1 OZ8       0.141600
     24 C24         20.6730     9.4680    78.4040 c6         1 OZ8       0.175300
     25 O25         20.4240    15.2130    76.5220 o          1 OZ8      -0.590000
     26 H12         17.0540    11.1490    79.3060 hc         1 OZ8       0.064700
     27 H1          15.4660    11.8940    79.2990 hc         1 OZ8       0.064700
     28 H3          17.2240     8.6340    78.8060 ha         1 OZ8       0.109000
     29 H4          16.2470     6.4470    79.3770 ha         1 OZ8       0.114000
     30 H5          13.9100     6.3020    80.1850 ha         1 OZ8       0.115000
     31 H7          13.5410    10.5530    79.8260 ha         1 OZ8       0.109000
     32 H91         14.2850    10.4440    76.4520 hc         1 OZ8       0.060200
     33 H6          12.5620     8.3670    80.4100 ha         1 OZ8       0.114000
     34 H8          16.6010    10.3460    76.9270 h1         1 OZ8       0.056700
     35 H101        14.0620    12.8410    75.2170 hc         1 OZ8       0.059200
     36 H10         15.3530    11.7610    74.6920 hc         1 OZ8       0.059200
     37 H11         16.6250    13.6910    75.2490 h1         1 OZ8       0.052700
     38 H111        15.5780    14.1150    76.6090 h1         1 OZ8       0.052700
     39 HN14        18.1040    14.5450    76.5120 hn         1 OZ8       0.319500
     40 H16         21.9420    13.2840    77.4040 ha         1 OZ8       0.203000
     41 H18         18.5660    10.5960    77.7320 ha         1 OZ8       0.190000
     42 H201        22.8680    10.5500    76.9970 h1         1 OZ8       0.052700
     43 H20         22.9880    11.8860    78.1400 h1         1 OZ8       0.052700
     44 H21         24.4160     9.9820    78.7650 h1         1 OZ8       0.053950
     45 H211        23.2700    10.4680    80.0250 h1         1 OZ8       0.053950
     46 H231        21.3770     9.1080    80.4000 h1         1 OZ8       0.053950
     47 H23         21.1780     7.6520    79.4130 h1         1 OZ8       0.053950
     48 H24         19.6640     9.4910    78.8110 h1         1 OZ8       0.052700
     49 H241        20.6310     8.9360    77.4440 h1         1 OZ8       0.052700
     50 H9          14.0480    11.8790    77.4430 hc         1 OZ8       0.060200
@<TRIPOS>BOND
     1     1     2 1   
     2     1     9 1   
     3     1    26 1   
     4     1    27 1   
     5     2     3 ar  
     6     2     6 ar  
     7     3     4 ar  
     8     3    28 1   
     9     4     5 ar  
    10     4    29 1   
    11     5     8 ar  
    12     5    30 1   
    13     6     8 ar  
    14     6    31 1   
    15     7     9 1   
    16     7    10 1   
    17     7    32 1   
    18     7    50 1   
    19     8    33 1   
    20     9    12 1   
    21     9    34 1   
    22    10    11 1   
    23    10    35 1   
    24    10    36 1   
    25    11    12 1   
    26    11    37 1   
    27    11    38 1   
    28    12    13 1   
    29    13    14 1   
    30    13    18 2   
    31    14    15 1   
    32    14    39 1   
    33    15    16 1   
    34    15    25 2   
    35    16    17 2   
    36    16    40 1   
    37    17    18 1   
    38    17    19 1   
    39    18    41 1   
    40    19    20 1   
    41    19    24 1   
    42    20    21 1   
    43    20    42 1   
    44    20    43 1   
    45    21    22 1   
    46    21    44 1   
    47    21    45 1   
    48    22    23 1   
    49    23    24 1   
    50    23    46 1   
    51    23    47 1   
    52    24    48 1   
    53    24    49 1   
@<TRIPOS>SUBSTRUCTURE
     1 OZ8         1 TEMP              0 ****  ****    0 ROOT
