@<TRIPOS>MOLECULE
OZ8
   50    53     1     0     0
SMALL
No Charge or Current Charge


@<TRIPOS>ATOM
      1 C1          15.8960    11.0100    78.9800 c3         1 OZ8      -0.047100
      2 C2          15.2010     9.6940    79.3020 ca         1 OZ8      -0.082300
      3 C3          15.9190     8.4840    79.2400 ca         1 OZ8      -0.108000
      4 C4          15.2810     7.2650    79.5280 ca         1 OZ8      -0.107000
      5 C5          13.9200     7.2490    79.8780 ca         1 OZ8      -0.108000
      6 C7          13.8370     9.6720    79.6530 ca         1 OZ8      -0.108000
      7 C9          14.7720    11.4210    76.6720 c5         1 OZ8      -0.089400
      8 C6          13.1980     8.4530    79.9400 ca         1 OZ8      -0.107000
      9 C8          16.0940    11.2380    77.4630 c5         1 OZ8       0.245500
     10 C10         15.3050    12.0360    75.3520 c5         1 OZ8      -0.096400
     11 C11         16.2520    13.1450    75.8850 c5         1 OZ8       0.216800
     12 N12         16.7640    12.5270    77.1410 nh         1 OZ8      -0.714400
     13 C13         18.1280    12.6410    77.3450 cc         1 OZ8       0.364600
     14 N14         18.6010    13.9180    77.3070 ns         1 OZ8      -0.405100
     15 C15         19.8930    14.2840    77.4980 c          1 OZ8       0.589200
     16 C16         20.7920    13.1750    77.7670 cc         1 OZ8      -0.476200
     17 C17         20.3740    11.8740    77.8310 cd         1 OZ8       0.311000
     18 C18         18.9850    11.6000    77.6170 cd         1 OZ8      -0.447000
     19 N19         21.2680    10.8420    78.1100 nh         1 OZ8      -0.661400
     20 C20         22.6050    10.7640    77.4360 c6         1 OZ8       0.175300
     21 C21         23.6590    10.0390    78.3220 c6         1 OZ8       0.141600
     22 O22         23.1590     8.7550    78.7640 os         1 OZ8      -0.440000
     23 C23         21.9470     8.8700    79.5460 c6         1 OZ8       0.141600
     24 C24         20.8160     9.5490    78.7190 c6         1 OZ8       0.175300
     25 O25         20.2510    15.4480    77.4510 o          1 OZ8      -0.590000
     26 H12         16.8700    11.0320    79.4810 hc         1 OZ8       0.064700
     27 H1          15.3330    11.8500    79.4030 hc         1 OZ8       0.064700
     28 H3          16.9720     8.4870    78.9690 ha         1 OZ8       0.109000
     29 H4          15.8400     6.3330    79.4790 ha         1 OZ8       0.114000
     30 H5          13.4250     6.3060    80.1000 ha         1 OZ8       0.115000
     31 H7          13.2690    10.5990    79.7010 ha         1 OZ8       0.109000
     32 H91         14.2470    10.4720    76.5140 hc         1 OZ8       0.060200
     33 H6          12.1440     8.4420    80.2100 ha         1 OZ8       0.114000
     34 H8          16.6400    10.3830    77.0420 h1         1 OZ8       0.056700
     35 H101        14.5100    12.4380    74.7150 hc         1 OZ8       0.059200
     36 H10         15.8580    11.2950    74.7610 hc         1 OZ8       0.059200
     37 H11         17.0430    13.3800    75.1580 h1         1 OZ8       0.052700
     38 H111        15.6990    14.0680    76.1040 h1         1 OZ8       0.052700
     39 HN14        17.9490    14.6670    77.1440 hn         1 OZ8       0.319500
     40 H16         21.8200    13.4560    77.9440 ha         1 OZ8       0.203000
     41 H18         18.6350    10.5820    77.6500 ha         1 OZ8       0.190000
     42 H201        22.5050    10.2170    76.4880 h1         1 OZ8       0.052700
     43 H20         22.9880    11.7620    77.1840 h1         1 OZ8       0.052700
     44 H21         24.5850     9.8870    77.7500 h1         1 OZ8       0.053950
     45 H211        23.8980    10.6560    79.2000 h1         1 OZ8       0.053950
     46 H231        22.1550     9.4610    80.4490 h1         1 OZ8       0.053950
     47 H23         21.6250     7.8680    79.8630 h1         1 OZ8       0.053950
     48 H24         19.9570     9.7190    79.3850 h1         1 OZ8       0.052700
     49 H241        20.4870     8.8590    77.9290 h1         1 OZ8       0.052700
     50 H9          14.0810    12.1010    77.1830 hc         1 OZ8       0.060200
@<TRIPOS>BOND
     1     1     2 1   
     2     1     9 1   
     3     1    26 1   
     4     1    27 1   
     5     2     3 ar  
     6     2     6 ar  
     7     3     4 ar  
     8     3    28 1   
     9     4     5 ar  
    10     4    29 1   
    11     5     8 ar  
    12     5    30 1   
    13     6     8 ar  
    14     6    31 1   
    15     7     9 1   
    16     7    10 1   
    17     7    32 1   
    18     7    50 1   
    19     8    33 1   
    20     9    12 1   
    21     9    34 1   
    22    10    11 1   
    23    10    35 1   
    24    10    36 1   
    25    11    12 1   
    26    11    37 1   
    27    11    38 1   
    28    12    13 1   
    29    13    14 1   
    30    13    18 2   
    31    14    15 1   
    32    14    39 1   
    33    15    16 1   
    34    15    25 2   
    35    16    17 2   
    36    16    40 1   
    37    17    18 1   
    38    17    19 1   
    39    18    41 1   
    40    19    20 1   
    41    19    24 1   
    42    20    21 1   
    43    20    42 1   
    44    20    43 1   
    45    21    22 1   
    46    21    44 1   
    47    21    45 1   
    48    22    23 1   
    49    23    24 1   
    50    23    46 1   
    51    23    47 1   
    52    24    48 1   
    53    24    49 1   
@<TRIPOS>SUBSTRUCTURE
     1 OZ8         1 TEMP              0 ****  ****    0 ROOT
