@<TRIPOS>MOLECULE
OZA
   50    55     1     0     0
SMALL
No Charge or Current Charge


@<TRIPOS>ATOM
      1 C8          -2.1800    -0.7620    -0.4100 c6         1 OZA       0.118400
      2 C4          -6.1370     0.3090     0.3540 c5         1 OZA      -0.056400
      3 C5          -2.6120    -0.8680     1.0970 c6         1 OZA       0.175800
      4 N1          -3.9630    -0.2220     1.2580 n3         1 OZA      -0.751600
      5 C6          -3.8510     1.1580    -0.7390 c6         1 OZA      -0.057400
      6 N           -3.1920    -1.5560    -1.1480 ns         1 OZA      -0.513900
      7 C           -4.5420    -1.2850    -1.0010 c          1 OZA       0.540000
      8 O           -5.4170    -1.9630    -1.5210 o          1 OZA      -0.555000
      9 C1          -4.6570    -0.0010    -0.0640 c5         1 OZA       0.117200
     10 C10          0.3210    -0.2980    -0.4120 cc         1 OZA      -0.146400
     11 C11          0.1000     1.0760    -0.3140 cd         1 OZA      -0.038300
     12 C12         -1.2630     1.7560    -0.3910 c6         1 OZA       0.024200
     13 C13         -1.1910     2.9600    -1.3830 c3         1 OZA      -0.085100
     14 C14         -1.5530     2.3800     1.0200 c3         1 OZA      -0.085100
     15 C16          1.7360    -0.4850    -0.2810 ca         1 OZA      -0.079800
     16 C17          2.4990    -1.6610    -0.3170 ca         1 OZA      -0.062000
     17 C18          3.8960    -1.5450    -0.1570 ca         1 OZA      -0.117000
     18 C19          4.4860    -0.2740     0.0330 ca         1 OZA       0.001100
     19 C20          3.6890     0.8900     0.0630 ca         1 OZA      -0.100000
     20 C7          -2.3410     0.7200    -0.9240 c6         1 OZA      -0.047700
     21 C9          -0.7570    -1.3190    -0.6780 c6         1 OZA       0.000800
     22 N2           1.3400     1.7320    -0.1070 na         1 OZA      -0.213700
     23 Br           6.3810    -0.1300     0.2490 br         1 OZA      -0.106100
     24 H1          -6.4060     1.3550     0.1680 hc         1 OZA       0.060700
     25 H2          -6.8620    -0.2990    -0.1980 hc         1 OZA       0.060700
     26 H3          -2.6630    -1.9350     1.3640 h1         1 OZA       0.050700
     27 H4          -1.8620    -0.4240     1.7620 h1         1 OZA       0.050700
     28 H5          -5.1460    -1.9580     1.6850 h1         1 OZA       0.038200
     29 H6          -4.6500    -1.0300     3.1270 h1         1 OZA       0.038200
     30 H8          -4.2920     1.3800    -1.7200 hc         1 OZA       0.058200
     31 H9          -3.9640     2.0750    -0.1540 hc         1 OZA       0.058200
     32 H10         -2.9220    -2.3570    -1.7040 hn         1 OZA       0.321500
     33 H11         -0.8820     2.6330    -2.3830 hc         1 OZA       0.040867
     34 H12         -2.1640     3.4560    -1.4840 hc         1 OZA       0.040867
     35 H13         -0.4720     3.7190    -1.0530 hc         1 OZA       0.040867
     36 H14         -0.7300     3.0340     1.3330 hc         1 OZA       0.040867
     37 H15         -2.4500     3.0070     1.0340 hc         1 OZA       0.040867
     38 H16         -1.6610     1.6330     1.8070 hc         1 OZA       0.040867
     39 H17          2.0300    -2.6310    -0.4640 ha         1 OZA       0.117000
     40 H18          4.5190    -2.4360    -0.1790 ha         1 OZA       0.128000
     41 H19          4.1360     1.8700     0.2070 ha         1 OZA       0.129000
     42 H20         -6.0570     0.8980     2.4790 hc         1 OZA       0.054200
     43 H21         -7.1100    -0.4890     2.1920 hc         1 OZA       0.054200
     44 H22         -2.1750     0.6540    -2.0090 hc         1 OZA       0.059700
     45 H23         -0.5920    -2.2280    -0.0830 hc         1 OZA       0.056700
     46 H24         -0.6850    -1.6330    -1.7280 hc         1 OZA       0.056700
     47 H25          1.4880     2.7280     0.0090 hn         1 OZA       0.353000
     48 C3          -6.1720    -0.0150     1.8830 c5         1 OZA      -0.088400
     49 C2          -4.9520    -0.9480     2.0740 c5         1 OZA       0.179800
     50 C15          2.3040     0.7420    -0.0990 ca         1 OZA      -0.046200
@<TRIPOS>BOND
     1     1     3 1   
     2     1     6 1   
     3     1    20 1   
     4     1    21 1   
     5     2     9 1   
     6     2    24 1   
     7     2    25 1   
     8     2    48 1   
     9     3     4 1   
    10     3    26 1   
    11     3    27 1   
    12     4     9 1   
    13     4    49 1   
    14     5     9 1   
    15     5    20 1   
    16     5    30 1   
    17     5    31 1   
    18     6     7 1   
    19     6    32 1   
    20     7     8 2   
    21     7     9 1   
    22    10    11 2   
    23    10    15 1   
    24    10    21 1   
    25    11    12 1   
    26    11    22 1   
    27    12    13 1   
    28    12    14 1   
    29    12    20 1   
    30    13    33 1   
    31    13    34 1   
    32    13    35 1   
    33    14    36 1   
    34    14    37 1   
    35    14    38 1   
    36    15    16 ar  
    37    15    50 ar  
    38    16    17 ar  
    39    16    39 1   
    40    17    18 ar  
    41    17    40 1   
    42    18    19 ar  
    43    18    23 1   
    44    19    41 1   
    45    19    50 ar  
    46    20    44 1   
    47    21    45 1   
    48    21    46 1   
    49    22    47 1   
    50    22    50 1   
    51    28    49 1   
    52    29    49 1   
    53    42    48 1   
    54    43    48 1   
    55    48    49 1   
@<TRIPOS>SUBSTRUCTURE
     1 OZA         1 TEMP              0 ****  ****    0 ROOT
