@<TRIPOS>MOLECULE
OZA
   50    55     1     0     0
SMALL
abcg2


@<TRIPOS>ATOM
      1 C8          -2.2110    -0.7140    -0.4320 c6         1 OZA       0.118400
      2 C4          -5.9410     0.4860     0.4870 c5         1 OZA      -0.056400
      3 C5          -2.5550    -0.7990     1.0580 c6         1 OZA       0.175800
      4 N1          -3.8370    -0.1550     1.2460 n3         1 OZA      -0.751600
      5 C6          -3.7970     1.1900    -0.7740 c6         1 OZA      -0.057400
      6 N           -3.2520    -1.4800    -1.1110 ns         1 OZA      -0.513900
      7 C           -4.5320    -1.1410    -0.8800 c          1 OZA       0.540000
      8 O           -5.5040    -1.7420    -1.3150 o          1 OZA      -0.555000
      9 C1          -4.5580     0.1110    -0.0030 c5         1 OZA       0.117200
     10 C10          0.2310    -0.3290    -0.4690 cc         1 OZA      -0.146400
     11 C11          0.0290     1.0160    -0.3530 cd         1 OZA      -0.038300
     12 C12         -1.2760     1.7490    -0.4330 c6         1 OZA       0.024200
     13 C13         -1.1810     2.8890    -1.4590 c3         1 OZA      -0.085100
     14 C14         -1.5830     2.3740     0.9400 c3         1 OZA      -0.085100
     15 C16          1.6320    -0.5560    -0.3000 ca         1 OZA      -0.079800
     16 C17          2.4450    -1.6910    -0.3100 ca         1 OZA      -0.062000
     17 C18          3.8050    -1.5560    -0.1040 ca         1 OZA      -0.117000
     18 C19          4.3550    -0.2840     0.1100 ca         1 OZA       0.001100
     19 C20          3.5920     0.8670     0.1260 ca         1 OZA      -0.100000
     20 C7          -2.3310     0.7380    -0.9610 c6         1 OZA      -0.047700
     21 C9          -0.8480    -1.3170    -0.7460 c6         1 OZA       0.000800
     22 N2           1.2300     1.6380    -0.1190 na         1 OZA      -0.213700
     23 BR           6.2230    -0.1420     0.3870 br         1 OZA      -0.106100
     24 H1          -5.9280     1.5310     0.8050 hc         1 OZA       0.060700
     25 H2          -6.7050     0.3810    -0.2820 hc         1 OZA       0.060700
     26 H3          -2.5920    -1.8640     1.3330 h1         1 OZA       0.050700
     27 H4          -1.7760    -0.3470     1.6770 h1         1 OZA       0.050700
     28 H5          -4.5960    -1.8350     2.2990 h1         1 OZA       0.038200
     29 H6          -4.5750    -0.3320     3.2060 h1         1 OZA       0.038200
     30 H8          -4.2770     1.3760    -1.7370 hc         1 OZA       0.058200
     31 H9          -3.8640     2.1190    -0.2080 hc         1 OZA       0.058200
     32 H10         -3.0250    -2.3130    -1.6360 hn         1 OZA       0.321500
     33 H11         -0.8710     2.5210    -2.4380 hc         1 OZA       0.040867
     34 H12         -2.1510     3.3750    -1.5750 hc         1 OZA       0.040867
     35 H13         -0.4740     3.6610    -1.1480 hc         1 OZA       0.040867
     36 H14         -0.7630     3.0280     1.2410 hc         1 OZA       0.040867
     37 H15         -2.4790     2.9920     0.9090 hc         1 OZA       0.040867
     38 H16         -1.7160     1.6320     1.7230 hc         1 OZA       0.040867
     39 H17          2.0240    -2.6750    -0.4770 ha         1 OZA       0.117000
     40 H18          4.4390    -2.4320    -0.1080 ha         1 OZA       0.128000
     41 H19          4.0250     1.8440     0.2930 ha         1 OZA       0.129000
     42 H20         -6.7940     0.0170     2.4470 hc         1 OZA       0.054200
     43 H21         -6.6560    -1.3590     1.3690 hc         1 OZA       0.054200
     44 H22         -2.1350     0.6490    -2.0350 hc         1 OZA       0.059700
     45 H23         -0.7020    -2.2330    -0.1660 hc         1 OZA       0.056700
     46 H24         -0.8230    -1.6170    -1.8000 hc         1 OZA       0.056700
     47 H25          1.3650     2.6290    -0.0010 hn         1 OZA       0.353000
     48 C3          -6.1620    -0.4410     1.6860 c5         1 OZA      -0.088400
     49 C2          -4.7490    -0.7510     2.2110 c5         1 OZA       0.179800
     50 C15          2.2250     0.7080    -0.0820 ca         1 OZA      -0.046200
@<TRIPOS>BOND
     1     1     3 1   
     2     1     6 1   
     3     1    20 1   
     4     1    21 1   
     5     2     9 1   
     6     2    24 1   
     7     2    25 1   
     8     2    48 1   
     9     3     4 1   
    10     3    26 1   
    11     3    27 1   
    12     4     9 1   
    13     4    49 1   
    14     5     9 1   
    15     5    20 1   
    16     5    30 1   
    17     5    31 1   
    18     6     7 1   
    19     6    32 1   
    20     7     8 2   
    21     7     9 1   
    22    10    11 2   
    23    10    15 1   
    24    10    21 1   
    25    11    12 1   
    26    11    22 1   
    27    12    13 1   
    28    12    14 1   
    29    12    20 1   
    30    13    33 1   
    31    13    34 1   
    32    13    35 1   
    33    14    36 1   
    34    14    37 1   
    35    14    38 1   
    36    15    16 ar  
    37    15    50 ar  
    38    16    17 ar  
    39    16    39 1   
    40    17    18 ar  
    41    17    40 1   
    42    18    19 ar  
    43    18    23 1   
    44    19    41 1   
    45    19    50 ar  
    46    20    44 1   
    47    21    45 1   
    48    21    46 1   
    49    22    47 1   
    50    22    50 1   
    51    28    49 1   
    52    29    49 1   
    53    42    48 1   
    54    43    48 1   
    55    48    49 1   
@<TRIPOS>SUBSTRUCTURE
     1 OZA         1 TEMP              0 ****  ****    0 ROOT
