@<TRIPOS>MOLECULE
OZB
   70    73     1     0     0
SMALL
abcg2


@<TRIPOS>ATOM
      1 N1          18.2330    13.0830    24.8190 ns         1 OZB      -0.497900
      2 N3          17.3860    11.2760    22.0630 n1         1 OZB      -0.442000
      3 C4          17.1010    11.2730    26.9550 c5         1 OZB      -0.160700
      4 C5          18.1920    10.3160    27.4610 c5         1 OZB      -0.091400
      5 C6          17.7700     9.9910    28.9030 c5         1 OZB       0.102000
      6 C7          15.8920    10.9380    27.8280 c          1 OZB       0.561000
      7 C8          17.6370    11.4540    23.1710 c1         1 OZB       0.283900
      8 C10         20.3970    15.6480    24.4670 c5         1 OZB      -0.065400
      9 C13         22.1230    19.0340    23.9650 c5         1 OZB       0.061100
     10 C15         19.6540    14.9640    27.9700 c          1 OZB       0.603100
     11 C20         16.9350    17.1460    31.2930 cx         1 OZB      -0.132400
     12 C21         21.1970    14.0220    29.8000 c3         1 OZB      -0.050000
     13 C22         21.9050    14.4360    31.0970 c3         1 OZB      -0.090433
     14 C24         22.2510    13.6170    28.7620 c3         1 OZB      -0.090433
     15 C1          19.4080    13.4910    25.3470 c          1 OZB       0.606100
     16 C11         21.1330    16.7650    25.2190 c5         1 OZB       0.209000
     17 C12         20.6060    19.0760    23.9790 c5         1 OZB       0.061100
     18 C14         21.4360    16.0920    26.5600 c5         1 OZB       0.134000
     19 C16         20.3950    15.2580    29.2720 c3         1 OZB       0.049700
     20 C18         18.3510    17.2530    31.7710 cx         1 OZB       0.051000
     21 C19         17.4310    16.2590    32.4070 cx         1 OZB      -0.132400
     22 C2          17.9330    11.6830    24.5930 c3         1 OZB       0.170800
     23 C23         20.2760    12.8300    30.0830 c3         1 OZB      -0.090433
     24 C3          16.7730    11.1820    25.4720 c3         1 OZB      -0.068400
     25 C9          19.5210    14.9990    25.5500 c5         1 OZB       0.028700
     26 F1          18.6380    18.3680    32.5330 f          1 OZB      -0.208000
     27 N2          16.3270    10.2000    28.8650 ns         1 OZB      -0.513900
     28 N4          20.2230    15.3090    26.8000 n          1 OZB      -0.395800
     29 N5          19.4040    15.7260    30.2230 ns         1 OZB      -0.498900
     30 O1          20.3360    12.7360    25.6010 o          1 OZB      -0.594100
     31 O3          20.5190    17.6000    30.8610 o          1 OZB      -0.576100
     32 O4          18.5530    14.4060    27.9960 o          1 OZB      -0.634100
     33 S1          20.0630    18.2310    25.4920 ss         1 OZB      -0.400000
     34 S2          22.6540    17.3250    24.3490 ss         1 OZB      -0.400000
     35 H1          17.4830    13.7500    24.7170 hn         1 OZB       0.328500
     36 H3          17.3680    12.3060    27.2040 hc         1 OZB       0.101700
     37 H4          18.1840     9.4030    26.8610 hc         1 OZB       0.063200
     38 H5          19.1900    10.7460    27.4150 hc         1 OZB       0.063200
     39 H6          18.0060     8.9660    29.1880 h1         1 OZB       0.047200
     40 H7          18.2370    10.6670    29.6230 h1         1 OZB       0.047200
     41 H9          19.8140    16.0160    23.6260 hc         1 OZB       0.081200
     42 H10         21.1310    14.9290    24.0990 hc         1 OZB       0.081200
     43 H11         22.5200    19.2820    22.9800 h1         1 OZB       0.087950
     44 H12         22.5400    19.7150    24.7040 h1         1 OZB       0.087950
     45 H14         16.7620    16.7220    30.3130 hc         1 OZB       0.090700
     46 H15         21.1880    14.7050    31.8720 hc         1 OZB       0.041811
     47 H16         22.5050    13.6020    31.4670 hc         1 OZB       0.041811
     48 H17         22.5670    15.2870    30.9300 hc         1 OZB       0.041811
     49 H18         22.8380    12.7810    29.1490 hc         1 OZB       0.041811
     50 H19         21.7950    13.2990    27.8240 hc         1 OZB       0.041811
     51 H20         22.9370    14.4400    28.5540 hc         1 OZB       0.041811
     52 H21         20.2320    20.0990    24.0230 h1         1 OZB       0.087950
     53 H22         20.1850    18.5780    23.1060 h1         1 OZB       0.087950
     54 H23         22.3040    15.4380    26.4560 h1         1 OZB       0.082700
     55 H24         21.6260    16.8110    27.3510 h1         1 OZB       0.082700
     56 H25         21.1030    16.0700    29.1390 h1         1 OZB       0.092700
     57 H26         17.1110    16.5000    33.4110 hc         1 OZB       0.090700
     58 H27         17.6000    15.2080    32.2160 hc         1 OZB       0.090700
     59 H28         18.8440    11.1280    24.8230 h1         1 OZB       0.108700
     60 H29         19.4970    13.0870    30.8030 hc         1 OZB       0.041811
     61 H30         19.7960    12.4720    29.1740 hc         1 OZB       0.041811
     62 H31         20.8620    12.0120    30.5050 hc         1 OZB       0.041811
     63 H32         15.8840    11.7760    25.2520 hc         1 OZB       0.070200
     64 H33         16.5570    10.1480    25.1980 hc         1 OZB       0.070200
     65 H34         18.5290    15.4500    25.5760 h1         1 OZB       0.083700
     66 H35         15.7170     9.9600    29.6330 hn         1 OZB       0.328500
     67 H36         18.5420    15.2050    30.2560 hn         1 OZB       0.333500
     68 O2          14.7330    11.2960    27.6290 o          1 OZB      -0.561000
     69 C17         19.5280    16.8780    30.9110 c          1 OZB       0.620100
     70 H13         16.2890    17.9700    31.5630 hc         1 OZB       0.090700
@<TRIPOS>BOND
     1     1    15 1   
     2     1    22 1   
     3     1    35 1   
     4     2     7 3   
     5     3     4 1   
     6     3     6 1   
     7     3    24 1   
     8     3    36 1   
     9     4     5 1   
    10     4    37 1   
    11     4    38 1   
    12     5    27 1   
    13     5    39 1   
    14     5    40 1   
    15     6    27 1   
    16     6    68 2   
    17     7    22 1   
    18     8    16 1   
    19     8    25 1   
    20     8    41 1   
    21     8    42 1   
    22     9    17 1   
    23     9    34 1   
    24     9    43 1   
    25     9    44 1   
    26    10    19 1   
    27    10    28 1   
    28    10    32 2   
    29    11    20 1   
    30    11    21 1   
    31    11    45 1   
    32    11    70 1   
    33    12    13 1   
    34    12    14 1   
    35    12    19 1   
    36    12    23 1   
    37    13    46 1   
    38    13    47 1   
    39    13    48 1   
    40    14    49 1   
    41    14    50 1   
    42    14    51 1   
    43    15    25 1   
    44    15    30 2   
    45    16    18 1   
    46    16    33 1   
    47    16    34 1   
    48    17    33 1   
    49    17    52 1   
    50    17    53 1   
    51    18    28 1   
    52    18    54 1   
    53    18    55 1   
    54    19    29 1   
    55    19    56 1   
    56    20    21 1   
    57    20    26 1   
    58    20    69 1   
    59    21    57 1   
    60    21    58 1   
    61    22    24 1   
    62    22    59 1   
    63    23    60 1   
    64    23    61 1   
    65    23    62 1   
    66    24    63 1   
    67    24    64 1   
    68    25    28 1   
    69    25    65 1   
    70    27    66 1   
    71    29    67 1   
    72    29    69 1   
    73    31    69 2   
@<TRIPOS>SUBSTRUCTURE
     1 OZB         1 TEMP              0 ****  ****    0 ROOT
