@<TRIPOS>MOLECULE
OZB
   70    73     1     0     0
SMALL
No Charge or Current Charge


@<TRIPOS>ATOM
      1 N1          18.4810    12.8830    24.6480 ns         1 OZB      -0.497900
      2 N3          17.7870    10.9380    21.9080 n1         1 OZB      -0.442000
      3 C4          16.7550    11.5450    26.7830 c5         1 OZB      -0.160700
      4 C5          17.7230    10.6520    27.6090 c5         1 OZB      -0.091400
      5 C6          17.1780    10.8700    29.0470 c5         1 OZB       0.102000
      6 C7          15.4200    11.3400    27.5090 c          1 OZB       0.561000
      7 C8          17.8930    11.1670    23.0470 c1         1 OZB       0.283900
      8 C10         20.6890    15.3060    24.4450 c5         1 OZB      -0.065400
      9 C13         22.0630    18.9390    23.8600 c5         1 OZB       0.061100
     10 C15         19.6360    15.0700    28.0130 c          1 OZB       0.603100
     11 C20         16.9400    16.3250    31.9350 cx         1 OZB      -0.132400
     12 C21         21.4270    14.2650    29.7730 c3         1 OZB      -0.050000
     13 C22         22.0990    14.6360    31.1260 c3         1 OZB      -0.090433
     14 C24         22.5590    14.0850    28.7260 c3         1 OZB      -0.090433
     15 C1          19.5610    13.2580    25.4200 c          1 OZB       0.606100
     16 C11         21.0710    16.6940    25.0100 c5         1 OZB       0.209000
     17 C12         20.6380    18.7240    23.3000 c5         1 OZB       0.061100
     18 C14         21.1990    16.4410    26.5400 c5         1 OZB       0.134000
     19 C16         20.4160    15.3960    29.3320 c3         1 OZB       0.049700
     20 C18         18.3290    16.8040    32.3190 cx         1 OZB       0.051000
     21 C19         17.7760    15.5150    32.9010 cx         1 OZB      -0.132400
     22 C2          18.0230    11.4930    24.4800 c3         1 OZB       0.170800
     23 C23         20.6940    12.9040    29.9460 c3         1 OZB      -0.090433
     24 C3          16.7010    11.2460    25.2550 c3         1 OZB      -0.068400
     25 C9          19.6460    14.8130    25.4930 c5         1 OZB       0.028700
     26 F1          18.4020    17.8820    33.1570 f          1 OZB      -0.208000
     27 N2          15.7430    10.9400    28.7770 ns         1 OZB      -0.513900
     28 N4          20.2370    15.3300    26.7620 n          1 OZB      -0.395800
     29 N5          19.4210    15.6810    30.3950 ns         1 OZB      -0.498900
     30 O1          20.3110    12.4540    25.9550 o          1 OZB      -0.594100
     31 O3          20.3820    17.5540    31.2540 o          1 OZB      -0.576100
     32 O4          18.5240    14.5520    28.0520 o          1 OZB      -0.634100
     33 S1          19.6960    17.9080    24.6740 ss         1 OZB      -0.400000
     34 S2          22.6990    17.2470    24.2970 ss         1 OZB      -0.400000
     35 H1          17.9270    13.6230    24.2330 hn         1 OZB       0.328500
     36 H3          17.0350    12.5910    26.9480 hc         1 OZB       0.101700
     37 H4          17.6400     9.5970    27.3190 hc         1 OZB       0.063200
     38 H5          18.7750    10.9380    27.5150 hc         1 OZB       0.063200
     39 H6          17.4480    10.0460    29.7200 h1         1 OZB       0.047200
     40 H7          17.5490    11.8100    29.4790 h1         1 OZB       0.047200
     41 H9          20.2840    15.3540    23.4280 hc         1 OZB       0.081200
     42 H10         21.5650    14.6460    24.4170 hc         1 OZB       0.081200
     43 H11         22.7230    19.4100    23.1200 h1         1 OZB       0.087950
     44 H12         22.0460    19.5750    24.7550 h1         1 OZB       0.087950
     45 H14         16.7780    15.9280    30.9360 hc         1 OZB       0.090700
     46 H15         21.3710    14.6680    31.9450 hc         1 OZB       0.041811
     47 H16         22.8630    13.8980    31.4000 hc         1 OZB       0.041811
     48 H17         22.5880    15.6170    31.0640 hc         1 OZB       0.041811
     49 H18         23.2780    13.3250    29.0560 hc         1 OZB       0.041811
     50 H19         22.1670    13.7560    27.7570 hc         1 OZB       0.041811
     51 H20         23.1120    15.0200    28.5800 hc         1 OZB       0.041811
     52 H21         20.1600    19.6730    23.0260 h1         1 OZB       0.087950
     53 H22         20.6480    18.0760    22.4130 h1         1 OZB       0.087950
     54 H23         22.2190    16.1300    26.7980 h1         1 OZB       0.082700
     55 H24         20.9530    17.3400    27.1200 h1         1 OZB       0.082700
     56 H25         20.9890    16.3130    29.1510 h1         1 OZB       0.092700
     57 H26         17.4860    15.5220    33.9490 hc         1 OZB       0.090700
     58 H27         18.1870    14.5690    32.5570 hc         1 OZB       0.090700
     59 H28         18.7840    10.8120    24.8840 h1         1 OZB       0.108700
     60 H29         19.8840    12.9760    30.6820 hc         1 OZB       0.041811
     61 H30         20.2630    12.5580    29.0000 hc         1 OZB       0.041811
     62 H31         21.3890    12.1290    30.2930 hc         1 OZB       0.041811
     63 H32         15.9130    11.8620    24.8010 hc         1 OZB       0.070200
     64 H33         16.3920    10.2040    25.1030 hc         1 OZB       0.070200
     65 H34         18.6520    15.2490    25.3270 h1         1 OZB       0.083700
     66 H35         15.0010    10.6580    29.4080 hn         1 OZB       0.328500
     67 H36         18.6150    15.0700    30.4570 hn         1 OZB       0.333500
     68 O2          14.2880    11.2820    27.0580 o          1 OZB      -0.561000
     69 C17         19.4740    16.7330    31.2900 c          1 OZB       0.620100
     70 H13         16.0920    16.8720    32.3390 hc         1 OZB       0.090700
@<TRIPOS>BOND
     1     1    15 1   
     2     1    22 1   
     3     1    35 1   
     4     2     7 3   
     5     3     4 1   
     6     3     6 1   
     7     3    24 1   
     8     3    36 1   
     9     4     5 1   
    10     4    37 1   
    11     4    38 1   
    12     5    27 1   
    13     5    39 1   
    14     5    40 1   
    15     6    27 1   
    16     6    68 2   
    17     7    22 1   
    18     8    16 1   
    19     8    25 1   
    20     8    41 1   
    21     8    42 1   
    22     9    17 1   
    23     9    34 1   
    24     9    43 1   
    25     9    44 1   
    26    10    19 1   
    27    10    28 1   
    28    10    32 2   
    29    11    20 1   
    30    11    21 1   
    31    11    45 1   
    32    11    70 1   
    33    12    13 1   
    34    12    14 1   
    35    12    19 1   
    36    12    23 1   
    37    13    46 1   
    38    13    47 1   
    39    13    48 1   
    40    14    49 1   
    41    14    50 1   
    42    14    51 1   
    43    15    25 1   
    44    15    30 2   
    45    16    18 1   
    46    16    33 1   
    47    16    34 1   
    48    17    33 1   
    49    17    52 1   
    50    17    53 1   
    51    18    28 1   
    52    18    54 1   
    53    18    55 1   
    54    19    29 1   
    55    19    56 1   
    56    20    21 1   
    57    20    26 1   
    58    20    69 1   
    59    21    57 1   
    60    21    58 1   
    61    22    24 1   
    62    22    59 1   
    63    23    60 1   
    64    23    61 1   
    65    23    62 1   
    66    24    63 1   
    67    24    64 1   
    68    25    28 1   
    69    25    65 1   
    70    27    66 1   
    71    29    67 1   
    72    29    69 1   
    73    31    69 2   
@<TRIPOS>SUBSTRUCTURE
     1 OZB         1 TEMP              0 ****  ****    0 ROOT
