@<TRIPOS>MOLECULE
OZC
   41    44     1     0     0
SMALL
abcg2


@<TRIPOS>ATOM
      1 N1           6.9120     0.3810    17.6900 nb         1 OZC      -0.657000
      2 C4          10.9360    -0.8160    21.7940 ca         1 OZC      -0.094500
      3 C5          12.2660    -1.1910    21.6370 ca         1 OZC      -0.099500
      4 C6           8.9970    -0.0020    23.2490 c6         1 OZC      -0.089400
      5 C7           8.2060    -1.1700    23.8600 c6         1 OZC      -0.069400
      6 C8           7.9320    -2.2180    22.7940 c6         1 OZC      -0.092400
      7 C10          8.3700     0.5350    21.9710 c          1 OZC       0.565000
      8 C13          5.8080     1.0900    17.7500 ca         1 OZC       0.364900
      9 C15          3.9700     2.2090    18.9800 ca         1 OZC      -0.080000
     10 C17          3.9530     2.0920    21.3910 ca         1 OZC      -0.090000
     11 O            8.6300     1.6750    21.5840 o          1 OZC      -0.541000
     12 C3          10.4540    -0.3640    23.0220 ca         1 OZC      -0.067300
     13 C2          11.3430    -0.2880    24.0960 ca         1 OZC      -0.094500
     14 C1          12.6740    -0.6590    23.9600 ca         1 OZC      -0.099500
     15 C           13.1210    -1.1120    22.7260 ca         1 OZC       0.125000
     16 CL          14.7990    -1.5860    22.5410 cl         1 OZC      -0.212000
     17 N            7.5460    -0.2830    21.2660 n          1 OZC      -0.250400
     18 C9           7.0840    -1.6220    21.6850 c6         1 OZC       0.116000
     19 C11          6.9230     0.2370    20.0890 ca         1 OZC      -0.086000
     20 C19          5.7330     1.0010    20.1820 ca         1 OZC      -0.004000
     21 C18          5.1040     1.3450    21.4010 ca         1 OZC      -0.097000
     22 C16          3.3790     2.5280    20.1750 ca         1 OZC      -0.110000
     23 C14          5.1580     1.4410    18.9580 ca         1 OZC      -0.095000
     24 C12          7.4580    -0.0410    18.8600 ca         1 OZC       0.334900
     25 H1          10.2760    -0.8810    20.9390 ha         1 OZC       0.119500
     26 H2          12.6290    -1.5410    20.6810 ha         1 OZC       0.131500
     27 H3           8.9760     0.8400    23.9430 hc         1 OZC       0.085700
     28 H4           7.2600    -0.7900    24.2580 hc         1 OZC       0.053200
     29 H5           8.7670    -1.5890    24.6960 hc         1 OZC       0.053200
     30 H6           7.3970    -3.0730    23.2100 hc         1 OZC       0.059200
     31 H7           8.8740    -2.5920    22.3860 hc         1 OZC       0.059200
     32 H8           5.3780     1.4220    16.8090 h4         1 OZC       0.021100
     33 H9           3.5410     2.5380    18.0410 ha         1 OZC       0.118000
     34 H10          3.4740     2.3540    22.3260 ha         1 OZC       0.115000
     35 H11         10.9900     0.0680    25.0570 ha         1 OZC       0.119500
     36 H12         13.3530    -0.5950    24.7980 ha         1 OZC       0.131500
     37 H13          6.0440    -1.5320    22.0120 h1         1 OZC       0.047200
     38 H14          7.0970    -2.2610    20.8020 h1         1 OZC       0.047200
     39 H15          5.5350     1.0170    22.3360 ha         1 OZC       0.119000
     40 H16          2.4710     3.1160    20.1950 ha         1 OZC       0.118000
     41 H17          8.3680    -0.6260    18.7910 h4         1 OZC       0.024100
@<TRIPOS>BOND
     1     1     8 ar  
     2     1    24 ar  
     3     2     3 ar  
     4     2    12 ar  
     5     2    25 1   
     6     3    15 ar  
     7     3    26 1   
     8     4     5 1   
     9     4     7 1   
    10     4    12 1   
    11     4    27 1   
    12     5     6 1   
    13     5    28 1   
    14     5    29 1   
    15     6    18 1   
    16     6    30 1   
    17     6    31 1   
    18     7    11 2   
    19     7    17 1   
    20     8    23 ar  
    21     8    32 1   
    22     9    22 ar  
    23     9    23 ar  
    24     9    33 1   
    25    10    21 ar  
    26    10    22 ar  
    27    10    34 1   
    28    12    13 ar  
    29    13    14 ar  
    30    13    35 1   
    31    14    15 ar  
    32    14    36 1   
    33    15    16 1   
    34    17    18 1   
    35    17    19 1   
    36    18    37 1   
    37    18    38 1   
    38    19    20 ar  
    39    19    24 ar  
    40    20    21 ar  
    41    20    23 ar  
    42    21    39 1   
    43    22    40 1   
    44    24    41 1   
@<TRIPOS>SUBSTRUCTURE
     1 OZC         1 TEMP              0 ****  ****    0 ROOT
