@<TRIPOS>MOLECULE
OZC
   41    44     1     0     0
SMALL
No Charge or Current Charge


@<TRIPOS>ATOM
      1 N1           7.6970     1.2360    18.2140 nb         1 OZC      -0.657000
      2 C4          10.7300    -1.1020    21.7510 ca         1 OZC      -0.094500
      3 C5          11.9970    -1.5050    21.2940 ca         1 OZC      -0.099500
      4 C6           9.2080    -0.0640    23.5550 c6         1 OZC      -0.089400
      5 C7           8.4320    -1.2650    24.1600 c6         1 OZC      -0.069400
      6 C8           7.6450    -2.0390    23.0850 c6         1 OZC      -0.092400
      7 C10          8.4510     0.7100    22.4410 c          1 OZC       0.565000
      8 C13          6.4210     1.5640    17.9220 ca         1 OZC       0.364900
      9 C15          4.0810     1.9100    18.5020 ca         1 OZC      -0.080000
     10 C17          3.3050     1.4270    20.7500 ca         1 OZC      -0.090000
     11 O            8.8080     1.8420    22.1350 o          1 OZC      -0.541000
     12 C3          10.5850    -0.5110    23.0260 ca         1 OZC      -0.067300
     13 C2          11.7280    -0.3380    23.8350 ca         1 OZC      -0.094500
     14 C1          12.9940    -0.7420    23.3760 ca         1 OZC      -0.099500
     15 C           13.1280    -1.3240    22.1060 ca         1 OZC       0.125000
     16 Cl          14.7120    -1.8300    21.5330 cl         1 OZC      -0.212000
     17 N            7.3960     0.0650    21.7420 n          1 OZC      -0.250400
     18 C9           6.6840    -1.0770    22.3690 c6         1 OZC       0.116000
     19 C11          6.9570     0.5140    20.4340 ca         1 OZC      -0.086000
     20 C19          5.6390     0.9770    20.1540 ca         1 OZC      -0.004000
     21 C18          4.5910     0.9860    21.1050 ca         1 OZC      -0.097000
     22 C16          3.0450     1.8780    19.4480 ca         1 OZC      -0.110000
     23 C14          5.3730     1.4760    18.8560 ca         1 OZC      -0.095000
     24 C12          7.9490     0.7570    19.4520 ca         1 OZC       0.334900
     25 H1           9.8680    -1.2550    21.1080 ha         1 OZC       0.119500
     26 H2          12.1030    -1.9590    20.3120 ha         1 OZC       0.131500
     27 H3           9.3990     0.6770    24.3430 hc         1 OZC       0.085700
     28 H4           7.7260    -0.8910    24.9160 hc         1 OZC       0.053200
     29 H5           9.1190    -1.9370    24.6920 hc         1 OZC       0.053200
     30 H6           7.0740    -2.8520    23.5540 hc         1 OZC       0.059200
     31 H7           8.3250    -2.5120    22.3640 hc         1 OZC       0.059200
     32 H8           6.2430     1.9490    16.9180 h4         1 OZC       0.021100
     33 H9           3.8810     2.2840    17.5000 ha         1 OZC       0.118000
     34 H10          2.5080     1.4240    21.4910 ha         1 OZC       0.115000
     35 H11         11.6380     0.1090    24.8230 ha         1 OZC       0.119500
     36 H12         13.8700    -0.6050    24.0040 ha         1 OZC       0.131500
     37 H13          5.9720    -0.6990    23.1140 h1         1 OZC       0.047200
     38 H14          6.1160    -1.6250    21.6040 h1         1 OZC       0.047200
     39 H15          4.7520     0.6760    22.1290 ha         1 OZC       0.119000
     40 H16          2.0480     2.2190    19.1770 ha         1 OZC       0.118000
     41 H17          8.9910     0.5080    19.6500 h4         1 OZC       0.024100
@<TRIPOS>BOND
     1     1     8 ar  
     2     1    24 ar  
     3     2     3 ar  
     4     2    12 ar  
     5     2    25 1   
     6     3    15 ar  
     7     3    26 1   
     8     4     5 1   
     9     4     7 1   
    10     4    12 1   
    11     4    27 1   
    12     5     6 1   
    13     5    28 1   
    14     5    29 1   
    15     6    18 1   
    16     6    30 1   
    17     6    31 1   
    18     7    11 2   
    19     7    17 1   
    20     8    23 ar  
    21     8    32 1   
    22     9    22 ar  
    23     9    23 ar  
    24     9    33 1   
    25    10    21 ar  
    26    10    22 ar  
    27    10    34 1   
    28    12    13 ar  
    29    13    14 ar  
    30    13    35 1   
    31    14    15 ar  
    32    14    36 1   
    33    15    16 1   
    34    17    18 1   
    35    17    19 1   
    36    18    37 1   
    37    18    38 1   
    38    19    20 ar  
    39    19    24 ar  
    40    20    21 ar  
    41    20    23 ar  
    42    21    39 1   
    43    22    40 1   
    44    24    41 1   
@<TRIPOS>SUBSTRUCTURE
     1 OZC         1 TEMP              0 ****  ****    0 ROOT
