@<TRIPOS>MOLECULE
OZE
   65    66     1     0     0
SMALL
No Charge or Current Charge


@<TRIPOS>ATOM
      1 C5           8.5460    39.4370    -3.3010 c          1 OZE       0.590100
      2 C6           9.9810    38.8260    -3.1870 c3         1 OZE       0.133800
      3 N1          10.8890    39.1350    -4.3310 n7         1 OZE      -0.936500
      4 C2           8.9350    42.6500    -1.2430 c3         1 OZE      -0.078600
      5 C4           7.3390    41.6120    -3.8800 c3         1 OZE      -0.033300
      6 C7          12.0370    39.2670    -6.7610 c3         1 OZE      -0.208300
      7 N2          12.3180    38.6380    -8.0840 ns         1 OZE      -0.450900
      8 C9          12.9970    41.4880    -7.6220 ca         1 OZE      -0.025300
      9 C8          11.8380    40.8000    -6.9070 c3         1 OZE      -0.038100
     10 C10         14.2040    41.7350    -6.9390 ca         1 OZE      -0.103000
     11 C11         15.2770    42.3630    -7.5960 ca         1 OZE      -0.124000
     12 N            8.5310    40.7430    -3.7400 ns         1 OZE      -0.428900
     13 C            6.7080    43.6060    -0.4820 c3         1 OZE      -0.078600
     14 O            7.5220    38.8220    -3.0120 o          1 OZE      -0.710100
     15 C12         15.1500    42.7460    -8.9410 ca         1 OZE      -0.146000
     16 C13         13.9500    42.5020    -9.6290 ca         1 OZE      -0.124000
     17 C14         12.8760    41.8760    -8.9720 ca         1 OZE      -0.103000
     18 C15         13.5490    38.2350    -8.5310 c          1 OZE       0.636100
     19 C16         14.6080    37.3110   -10.4650 c3         1 OZE       0.230900
     20 C17         14.2350    36.8640   -11.8730 ca         1 OZE      -0.077300
     21 C18         13.9460    35.5100   -12.1370 ca         1 OZE      -0.086500
     22 C19         13.6050    35.0990   -13.4380 ca         1 OZE      -0.123000
     23 C20         13.5500    36.0390   -14.4810 ca         1 OZE      -0.119000
     24 C21         13.8340    37.3900   -14.2230 ca         1 OZE      -0.123000
     25 C22         14.1760    37.8020   -12.9230 ca         1 OZE      -0.086500
     26 C23          7.6320    42.8150    -4.8340 c          1 OZE       0.721000
     27 C3           6.7400    42.0620    -2.5140 c3         1 OZE      -0.054400
     28 O3          14.5880    38.2780    -7.8900 o          1 OZE      -0.577000
     29 O4          13.4180    37.7660    -9.8020 os         1 OZE      -0.466100
     30 O5           6.7010    43.2750    -5.4800 o          1 OZE      -0.734000
     31 O6           8.7900    43.1890    -4.9730 o          1 OZE      -0.734000
     32 P           10.6490    38.4520    -5.8110 p5         1 OZE       1.312300
     33 H1           9.8820    37.7400    -3.0560 h1         1 OZE       0.030200
     34 H2          10.4170    39.2300    -2.2640 h1         1 OZE       0.030200
     35 H3          11.7950    38.7240    -4.1170 hn         1 OZE       0.404000
     36 H4           9.4000    43.3910    -0.5810 hc         1 OZE       0.016700
     37 H5           8.8660    41.7010    -0.6980 hc         1 OZE       0.016700
     38 H6           9.6070    42.5150    -2.0980 hc         1 OZE       0.016700
     39 H7           6.5740    41.0080    -4.3850 h1         1 OZE       0.053700
     40 H8          12.9090    39.1010    -6.1190 h1         1 OZE       0.063700
     41 H9          11.5590    38.5080    -8.7440 hn         1 OZE       0.340500
     42 H10         11.7090    41.2470    -5.9130 hc         1 OZE       0.086200
     43 H11         10.8980    40.9910    -7.4400 hc         1 OZE       0.086200
     44 H12         14.3100    41.4360    -5.8990 ha         1 OZE       0.116500
     45 H13         16.2060    42.5490    -7.0620 ha         1 OZE       0.088000
     46 H14          9.4320    41.1170    -4.0180 hn         1 OZE       0.357500
     47 H15          7.2350    44.4010     0.0590 hc         1 OZE       0.016700
     48 H16          5.7380    44.0050    -0.8030 hc         1 OZE       0.016700
     49 H17          6.5260    42.7780     0.2140 hc         1 OZE       0.016700
     50 H18          7.6820    44.0070    -2.3410 hc         1 OZE       0.069700
     51 H19         15.9800    43.2300    -9.4500 ha         1 OZE       0.082000
     52 H20         13.8510    42.7970   -10.6720 ha         1 OZE       0.088000
     53 H21         11.9530    41.6870    -9.5140 ha         1 OZE       0.116500
     54 H22         15.0610    36.4730    -9.9190 h1         1 OZE       0.046700
     55 H23         15.3510    38.1170   -10.5240 h1         1 OZE       0.046700
     56 H24         13.9850    34.7760   -11.3340 ha         1 OZE       0.122500
     57 H25         13.3830    34.0530   -13.6370 ha         1 OZE       0.102500
     58 H26         13.2850    35.7200   -15.4870 ha         1 OZE       0.096000
     59 H27         13.7900    38.1190   -15.0290 ha         1 OZE       0.102500
     60 H28         14.3920    38.8510   -12.7290 ha         1 OZE       0.122500
     61 H29          5.7440    42.4720    -2.7210 hc         1 OZE       0.023700
     62 H30          6.5730    41.1810    -1.8840 hc         1 OZE       0.023700
     63 C1           7.5350    43.1290    -1.7000 c3         1 OZE      -0.056700
     64 O1          10.8730    36.9900    -5.6440 o          1 OZE      -0.801000
     65 O2           9.2930    38.8100    -6.3080 o          1 OZE      -0.801000
@<TRIPOS>BOND
     1     1     2 1   
     2     1    12 1   
     3     1    14 2   
     4     2     3 1   
     5     2    33 1   
     6     2    34 1   
     7     3    32 1   
     8     3    35 1   
     9     4    36 1   
    10     4    37 1   
    11     4    38 1   
    12     4    63 1   
    13     5    12 1   
    14     5    26 1   
    15     5    27 1   
    16     5    39 1   
    17     6     7 1   
    18     6     9 1   
    19     6    32 1   
    20     6    40 1   
    21     7    18 1   
    22     7    41 1   
    23     8     9 1   
    24     8    10 ar  
    25     8    17 ar  
    26     9    42 1   
    27     9    43 1   
    28    10    11 ar  
    29    10    44 1   
    30    11    15 ar  
    31    11    45 1   
    32    12    46 1   
    33    13    47 1   
    34    13    48 1   
    35    13    49 1   
    36    13    63 1   
    37    15    16 ar  
    38    15    51 1   
    39    16    17 ar  
    40    16    52 1   
    41    17    53 1   
    42    18    28 2   
    43    18    29 1   
    44    19    20 1   
    45    19    29 1   
    46    19    54 1   
    47    19    55 1   
    48    20    21 ar  
    49    20    25 ar  
    50    21    22 ar  
    51    21    56 1   
    52    22    23 ar  
    53    22    57 1   
    54    23    24 ar  
    55    23    58 1   
    56    24    25 ar  
    57    24    59 1   
    58    25    60 1   
    59    26    30 1   
    60    26    31 1   
    61    27    61 1   
    62    27    62 1   
    63    27    63 1   
    64    32    64 1   
    65    32    65 1   
    66    50    63 1   
@<TRIPOS>SUBSTRUCTURE
     1 OZE         1 TEMP              0 ****  ****    0 ROOT
