@<TRIPOS>MOLECULE
OZE
   65    66     1     0     0
SMALL
abcg2


@<TRIPOS>ATOM
      1 C5           8.5720    38.9180    -3.4280 c          1 OZE       0.590100
      2 C6           9.9220    38.2150    -3.4460 c3         1 OZE       0.133800
      3 N1          10.9480    38.8540    -4.2460 n7         1 OZE      -0.936500
      4 C2           9.3280    42.6950    -2.4330 c3         1 OZE      -0.078600
      5 C4           7.3330    40.9010    -4.1810 c3         1 OZE      -0.033300
      6 C7          12.4340    39.4530    -6.4940 c3         1 OZE      -0.208300
      7 N2          12.5620    39.1550    -7.9050 ns         1 OZE      -0.450900
      8 C9          13.0870    41.8480    -6.8790 ca         1 OZE      -0.025300
      9 C8          12.0630    40.9230    -6.2860 c3         1 OZE      -0.038100
     10 C10         14.3150    42.0370    -6.2470 ca         1 OZE      -0.103000
     11 C11         15.2830    42.8650    -6.7980 ca         1 OZE      -0.124000
     12 N            8.5280    40.1050    -4.0240 ns         1 OZE      -0.428900
     13 C            7.2680    43.7720    -1.5090 c3         1 OZE      -0.078600
     14 O            7.6200    38.3880    -2.8570 o          1 OZE      -0.710100
     15 C12         15.0360    43.5240    -7.9970 ca         1 OZE      -0.146000
     16 C13         13.8170    43.3450    -8.6360 ca         1 OZE      -0.124000
     17 C14         12.8530    42.5130    -8.0800 ca         1 OZE      -0.103000
     18 C15         13.6370    38.5660    -8.4510 c          1 OZE       0.636100
     19 C16         14.4250    37.5770   -10.4530 c3         1 OZE       0.230900
     20 C17         13.8060    37.0230   -11.7020 ca         1 OZE      -0.077300
     21 C18         12.8190    36.0420   -11.6140 ca         1 OZE      -0.086500
     22 C19         12.2440    35.5170   -12.7610 ca         1 OZE      -0.123000
     23 C20         12.6510    35.9650   -14.0130 ca         1 OZE      -0.119000
     24 C21         13.6340    36.9390   -14.1090 ca         1 OZE      -0.123000
     25 C22         14.2060    37.4670   -12.9560 ca         1 OZE      -0.086500
     26 C23          7.4310    41.7870    -5.4470 c          1 OZE       0.721000
     27 C3           7.0000    41.7540    -2.9470 c3         1 OZE      -0.054400
     28 O3          14.6950    38.3540    -7.8930 o          1 OZE      -0.577000
     29 O4          13.3920    38.2490    -9.7320 os         1 OZE      -0.466100
     30 O5           6.3770    42.3630    -5.7710 o          1 OZE      -0.734000
     31 O6           8.5400    41.8650    -6.0110 o          1 OZE      -0.734000
     32 P           11.1940    38.2350    -5.8350 p5         1 OZE       1.312300
     33 H1           9.7320    37.1730    -3.7320 h1         1 OZE       0.030200
     34 H2          10.2560    38.1690    -2.4070 h1         1 OZE       0.030200
     35 H3          11.8110    38.9460    -3.7270 hn         1 OZE       0.404000
     36 H4           9.8600    43.6050    -2.1480 hc         1 OZE       0.016700
     37 H5           9.4460    41.9750    -1.6190 hc         1 OZE       0.016700
     38 H6           9.8260    42.2880    -3.3110 hc         1 OZE       0.016700
     39 H7           6.4910    40.2160    -4.3240 h1         1 OZE       0.053700
     40 H8          13.3990    39.2600    -6.0240 h1         1 OZE       0.063700
     41 H9          11.7140    39.1930    -8.4530 hn         1 OZE       0.340500
     42 H10         11.9670    41.1070    -5.2150 hc         1 OZE       0.086200
     43 H11         11.0800    41.1160    -6.7210 hc         1 OZE       0.086200
     44 H12         14.5170    41.5310    -5.3090 ha         1 OZE       0.116500
     45 H13         16.2290    43.0000    -6.2900 ha         1 OZE       0.088000
     46 H14          9.3430    40.3920    -4.5470 hn         1 OZE       0.357500
     47 H15          7.8270    44.6890    -1.3180 hc         1 OZE       0.016700
     48 H16          6.2280    44.0490    -1.6900 hc         1 OZE       0.016700
     49 H17          7.2960    43.1720    -0.5960 hc         1 OZE       0.016700
     50 H18          7.7880    43.6470    -3.5690 hc         1 OZE       0.069700
     51 H19         15.7890    44.1730    -8.4270 ha         1 OZE       0.082000
     52 H20         13.6140    43.8550    -9.5690 ha         1 OZE       0.088000
     53 H21         11.9030    42.3810    -8.5850 ha         1 OZE       0.116500
     54 H22         14.8440    36.7710    -9.8470 h1         1 OZE       0.046700
     55 H23         15.2330    38.2710   -10.6940 h1         1 OZE       0.046700
     56 H24         12.5010    35.6820   -10.6430 ha         1 OZE       0.122500
     57 H25         11.4790    34.7560   -12.6800 ha         1 OZE       0.102500
     58 H26         12.2040    35.5550   -14.9090 ha         1 OZE       0.096000
     59 H27         13.9550    37.2930   -15.0800 ha         1 OZE       0.102500
     60 H28         14.9690    38.2320   -13.0370 ha         1 OZE       0.122500
     61 H29          5.9600    42.0750    -3.0530 hc         1 OZE       0.023700
     62 H30          7.0270    41.1140    -2.0590 hc         1 OZE       0.023700
     63 C1           7.8540    42.9980    -2.6890 c3         1 OZE      -0.056700
     64 O1          11.8430    36.8710    -5.8100 o          1 OZE      -0.801000
     65 O2           9.9070    38.4160    -6.6020 o          1 OZE      -0.801000
@<TRIPOS>BOND
     1     1     2 1   
     2     1    12 1   
     3     1    14 2   
     4     2     3 1   
     5     2    33 1   
     6     2    34 1   
     7     3    32 1   
     8     3    35 1   
     9     4    36 1   
    10     4    37 1   
    11     4    38 1   
    12     4    63 1   
    13     5    12 1   
    14     5    26 1   
    15     5    27 1   
    16     5    39 1   
    17     6     7 1   
    18     6     9 1   
    19     6    32 1   
    20     6    40 1   
    21     7    18 1   
    22     7    41 1   
    23     8     9 1   
    24     8    10 ar  
    25     8    17 ar  
    26     9    42 1   
    27     9    43 1   
    28    10    11 ar  
    29    10    44 1   
    30    11    15 ar  
    31    11    45 1   
    32    12    46 1   
    33    13    47 1   
    34    13    48 1   
    35    13    49 1   
    36    13    63 1   
    37    15    16 ar  
    38    15    51 1   
    39    16    17 ar  
    40    16    52 1   
    41    17    53 1   
    42    18    28 2   
    43    18    29 1   
    44    19    20 1   
    45    19    29 1   
    46    19    54 1   
    47    19    55 1   
    48    20    21 ar  
    49    20    25 ar  
    50    21    22 ar  
    51    21    56 1   
    52    22    23 ar  
    53    22    57 1   
    54    23    24 ar  
    55    23    58 1   
    56    24    25 ar  
    57    24    59 1   
    58    25    60 1   
    59    26    30 1   
    60    26    31 1   
    61    27    61 1   
    62    27    62 1   
    63    27    63 1   
    64    32    64 1   
    65    32    65 1   
    66    50    63 1   
@<TRIPOS>SUBSTRUCTURE
     1 OZE         1 TEMP              0 ****  ****    0 ROOT
