@<TRIPOS>MOLECULE
OZG
   35    37     1     0     0
SMALL
No Charge or Current Charge


@<TRIPOS>ATOM
      1 C10          0.0510    -0.7200     0.8370 ca         1 OZG      -0.173000
      2 C13         -3.6360    -0.7990    -0.1590 cc         1 OZG      -0.022400
      3 C15         -4.5790     1.4830     0.3550 c          1 OZG       0.722000
      4 C20         -1.7370    -1.7560    -1.0100 ca         1 OZG       0.060100
      5 C21         -0.3880    -2.0970    -1.1480 ca         1 OZG      -0.126000
      6 C22          2.7600     0.3550    -0.4420 ca         1 OZG      -0.211000
      7 C01          4.6690     3.5520    -0.3630 c3         1 OZG       0.151900
      8 C03          3.8110     1.2470    -0.1850 ca         1 OZG       0.170100
      9 C04          4.9790     0.7820     0.4580 ca         1 OZG      -0.244000
     10 C05          5.0890    -0.5680     0.8310 ca         1 OZG      -0.054000
     11 C06          4.0320    -1.4550     0.5700 ca         1 OZG      -0.186000
     12 C07          2.8640    -0.9940    -0.0560 ca         1 OZG       0.181100
     13 C09          0.5170    -1.5580    -0.2110 ca         1 OZG       0.089100
     14 C11         -1.3210    -0.3970     0.9450 ca         1 OZG      -0.008000
     15 C12         -2.1970    -0.9380    -0.0060 ca         1 OZG      -0.081800
     16 C14         -4.5850    -0.0120     0.7070 c3         1 OZG      -0.172200
     17 C18         -3.9260    -1.5720    -1.2790 cd         1 OZG      -0.135900
     18 O08          1.8490    -1.8880    -0.3130 os         1 OZG      -0.259200
     19 O16         -5.3150     1.8650    -0.5430 o          1 OZG      -0.725000
     20 O17         -3.7580     2.2020     0.9050 o          1 OZG      -0.725000
     21 O19         -2.7830    -2.1430    -1.7840 os         1 OZG      -0.193200
     22 H101         0.7490    -0.3220     1.5690 ha         1 OZG       0.116000
     23 H211        -0.0520    -2.7490    -1.9490 ha         1 OZG       0.127000
     24 H221         1.8670     0.7130    -0.9450 ha         1 OZG       0.159000
     25 H011         4.8780     3.6680     0.7080 h1         1 OZG       0.035367
     26 H012         5.5990     3.2770    -0.8780 h1         1 OZG       0.035367
     27 H013         4.3390     4.5230    -0.7530 h1         1 OZG       0.035367
     28 H041         5.8100     1.4490     0.6700 ha         1 OZG       0.109000
     29 H051         5.9920    -0.9280     1.3220 ha         1 OZG       0.101000
     30 H061         4.1150    -2.5000     0.8560 ha         1 OZG       0.123000
     31 H111        -1.6850     0.2480     1.7420 ha         1 OZG       0.140000
     32 H141        -5.5820    -0.4300     0.5220 hc         1 OZG       0.034700
     33 H142        -4.2470    -0.1530     1.7400 hc         1 OZG       0.034700
     34 H181        -4.8670    -1.7790    -1.7790 h4         1 OZG       0.225000
     35 O02          3.6520     2.5580    -0.5810 os         1 OZG      -0.331100
@<TRIPOS>BOND
     1     1    13 ar  
     2     1    14 ar  
     3     1    22 1   
     4     2    15 1   
     5     2    16 1   
     6     2    17 2   
     7     3    16 1   
     8     3    19 1   
     9     3    20 1   
    10     4     5 ar  
    11     4    15 ar  
    12     4    21 1   
    13     5    13 ar  
    14     5    23 1   
    15     6     8 ar  
    16     6    12 ar  
    17     6    24 1   
    18     7    25 1   
    19     7    26 1   
    20     7    27 1   
    21     7    35 1   
    22     8     9 ar  
    23     8    35 1   
    24     9    10 ar  
    25     9    28 1   
    26    10    11 ar  
    27    10    29 1   
    28    11    12 ar  
    29    11    30 1   
    30    12    18 1   
    31    13    18 1   
    32    14    15 ar  
    33    14    31 1   
    34    16    32 1   
    35    16    33 1   
    36    17    21 1   
    37    17    34 1   
@<TRIPOS>SUBSTRUCTURE
     1 OZG         1 TEMP              0 ****  ****    0 ROOT
