@<TRIPOS>MOLECULE
OZG
   35    37     1     0     0
SMALL
abcg2


@<TRIPOS>ATOM
      1 C10         -0.0730    -0.8930     1.2800 ca         1 OZG      -0.173000
      2 C13         -3.5100    -0.6960    -0.3320 cc         1 OZG      -0.022400
      3 C15         -4.4170     1.4620     0.6920 c          1 OZG       0.722000
      4 C20         -1.5050    -1.5450    -0.9570 ca         1 OZG       0.060100
      5 C21         -0.1660    -1.9000    -0.9390 ca         1 OZG      -0.126000
      6 C22          2.6020     0.2960    -0.1730 ca         1 OZG      -0.211000
      7 C01          4.3760     3.4150    -0.6820 c3         1 OZG       0.151900
      8 C03          3.6710     1.1940    -0.2370 ca         1 OZG       0.170100
      9 C04          4.9580     0.7800     0.0920 ca         1 OZG      -0.244000
     10 C05          5.1560    -0.5400     0.4850 ca         1 OZG      -0.054000
     11 C06          4.1120    -1.4410     0.5630 ca         1 OZG      -0.186000
     12 C07          2.8290    -1.0090     0.2290 ca         1 OZG       0.181100
     13 C09          0.5300    -1.5630     0.2080 ca         1 OZG       0.089100
     14 C11         -1.4080    -0.5370     1.2220 ca         1 OZG      -0.008000
     15 C12         -2.1430    -0.8730     0.0860 ca         1 OZG      -0.081800
     16 C14         -4.6060    -0.0530     0.4370 c3         1 OZG      -0.172200
     17 C18         -3.5750    -1.2660    -1.5520 cd         1 OZG      -0.135900
     18 O08          1.8460    -1.9470     0.3020 os         1 OZG      -0.259200
     19 O16         -3.4050     2.0050     0.2170 o          1 OZG      -0.725000
     20 O17         -5.3190     2.0030     1.3620 o          1 OZG      -0.725000
     21 O19         -2.3750    -1.7830    -1.9580 os         1 OZG      -0.193200
     22 H101         0.5170    -0.6520     2.1550 ha         1 OZG       0.116000
     23 H211         0.3120    -2.4140    -1.7620 ha         1 OZG       0.127000
     24 H221         1.6110     0.6410    -0.4410 ha         1 OZG       0.159000
     25 H011         4.8380     3.5720     0.2960 h1         1 OZG       0.035367
     26 H012         5.1560     3.1540    -1.4020 h1         1 OZG       0.035367
     27 H013         3.9050     4.3420    -1.0000 h1         1 OZG       0.035367
     28 H041         5.8030     1.4530     0.0500 ha         1 OZG       0.109000
     29 H051         6.1560    -0.8660     0.7410 ha         1 OZG       0.101000
     30 H061         4.2800    -2.4640     0.8730 ha         1 OZG       0.123000
     31 H111        -1.8690    -0.0180     2.0510 ha         1 OZG       0.140000
     32 H141        -5.5590    -0.2030    -0.0800 hc         1 OZG       0.034700
     33 H142        -4.7200    -0.5510     1.4050 hc         1 OZG       0.034700
     34 H181        -4.3930    -1.3790    -2.2470 h4         1 OZG       0.225000
     35 O02          3.3530     2.4410    -0.6320 os         1 OZG      -0.331100
@<TRIPOS>BOND
     1     1    13 ar  
     2     1    14 ar  
     3     1    22 1   
     4     2    15 1   
     5     2    16 1   
     6     2    17 2   
     7     3    16 1   
     8     3    19 1   
     9     3    20 1   
    10     4     5 ar  
    11     4    15 ar  
    12     4    21 1   
    13     5    13 ar  
    14     5    23 1   
    15     6     8 ar  
    16     6    12 ar  
    17     6    24 1   
    18     7    25 1   
    19     7    26 1   
    20     7    27 1   
    21     7    35 1   
    22     8     9 ar  
    23     8    35 1   
    24     9    10 ar  
    25     9    28 1   
    26    10    11 ar  
    27    10    29 1   
    28    11    12 ar  
    29    11    30 1   
    30    12    18 1   
    31    13    18 1   
    32    14    15 ar  
    33    14    31 1   
    34    16    32 1   
    35    16    33 1   
    36    17    21 1   
    37    17    34 1   
@<TRIPOS>SUBSTRUCTURE
     1 OZG         1 TEMP              0 ****  ****    0 ROOT
