@<TRIPOS>MOLECULE
OZH
   65    66     1     0     0
SMALL
No Charge or Current Charge


@<TRIPOS>ATOM
      1 O5          35.1390    39.0850   -10.7770 o          1 OZH      -0.720500
      2 O4          37.6320    38.9860    -3.8220 os         1 OZH      -0.471100
      3 C2          32.1470    35.3500    -7.4680 c3         1 OZH      -0.080100
      4 C1          33.2590    36.4240    -7.4370 c3         1 OZH      -0.062700
      5 C           34.6490    35.7590    -7.2790 c3         1 OZH      -0.080100
      6 C7          36.1560    42.2900    -4.3830 c3         1 OZH      -0.217300
      7 N           33.6480    39.6180    -7.6830 ns         1 OZH      -0.442900
      8 C6          33.4520    40.8780    -5.5480 c3         1 OZH       0.169800
      9 C5          34.1060    39.7300    -6.3860 c          1 OZH       0.576100
     10 C4          34.0840    38.6080    -8.6810 c3         1 OZH      -0.039300
     11 C3          33.1710    37.3480    -8.6850 c3         1 OZH      -0.067400
     12 O           34.9560    38.9810    -5.9160 o          1 OZH      -0.707100
     13 C8          35.3650    42.8260    -3.1560 c3         1 OZH      -0.045100
     14 C9          36.0790    42.5960    -1.8270 ca         1 OZH      -0.042300
     15 C11         36.4060    41.2790     0.2030 ca         1 OZH      -0.118500
     16 C10         35.7480    41.4880    -1.0220 ca         1 OZH      -0.106500
     17 C12         37.3970    42.1780     0.6300 ca         1 OZH      -0.138000
     18 C17         38.5170    36.7600    -3.5890 ca         1 OZH      -0.077300
     19 C18         38.0730    36.2680    -4.8350 ca         1 OZH      -0.086500
     20 C16         38.7920    38.2500    -3.4030 c3         1 OZH       0.230900
     21 C14         37.0740    43.4940    -1.3930 ca         1 OZH      -0.106500
     22 C13         37.7310    43.2850    -0.1670 ca         1 OZH      -0.118500
     23 C23         34.1350    39.2540   -10.1000 c          1 OZH       0.709000
     24 C19         37.8200    34.8960    -5.0080 ca         1 OZH      -0.121500
     25 C20         38.0110    34.0050    -3.9380 ca         1 OZH      -0.116000
     26 C21         38.4550    34.4880    -2.6960 ca         1 OZH      -0.121500
     27 O3          38.6190    41.0040    -3.3360 o          1 OZH      -0.565000
     28 C22         38.7070    35.8600    -2.5210 ca         1 OZH      -0.086500
     29 N1          33.8760    42.2680    -5.8960 n7         1 OZH      -1.007500
     30 N2          36.5050    40.8440    -4.2520 ns         1 OZH      -0.430900
     31 O6          33.2010    39.9650   -10.4510 o          1 OZH      -0.720500
     32 P           35.4380    42.7770    -6.0440 p5         1 OZH       1.380300
     33 H1          32.1820    34.7300    -6.5640 hc         1 OZH       0.017533
     34 H2          31.1560    35.8180    -7.5160 hc         1 OZH       0.017533
     35 H3          32.2610    34.6940    -8.3400 hc         1 OZH       0.017533
     36 H4          33.0790    37.0370    -6.5460 hc         1 OZH       0.051700
     37 H5          34.6680    35.1120    -6.3930 hc         1 OZH       0.017533
     38 H6          34.8890    35.1440    -8.1550 hc         1 OZH       0.017533
     39 H7          35.4400    36.5050    -7.1570 hc         1 OZH       0.017533
     40 H8          37.1000    42.8450    -4.4220 h1         1 OZH       0.087700
     41 H9          32.9970    40.3330    -7.9870 hn         1 OZH       0.348500
     42 H10         32.3640    40.7860    -5.6610 h1         1 OZH       0.034200
     43 H11         33.6770    40.6660    -4.4950 h1         1 OZH       0.034200
     44 H12         35.1120    38.3070    -8.4440 h1         1 OZH       0.055700
     45 H13         32.1330    37.6770    -8.8180 hc         1 OZH       0.037200
     46 H14         33.4140    36.7480    -9.5720 hc         1 OZH       0.037200
     47 H15         35.1860    43.9000    -3.2910 hc         1 OZH       0.058700
     48 H16         34.3730    42.3620    -3.1210 hc         1 OZH       0.058700
     49 H17         36.1480    40.4210     0.8180 ha         1 OZH       0.092000
     50 H18         34.9850    40.7860    -1.3480 ha         1 OZH       0.112500
     51 H19         37.9070    42.0170     1.5780 ha         1 OZH       0.088000
     52 H20         37.9190    36.9520    -5.6670 ha         1 OZH       0.118500
     53 H21         39.6670    38.5310    -4.0030 h1         1 OZH       0.048700
     54 H22         39.0200    38.4580    -2.3490 h1         1 OZH       0.048700
     55 H23         37.3400    44.3510    -2.0070 ha         1 OZH       0.112500
     56 H24         38.4990    43.9810     0.1620 ha         1 OZH       0.092000
     57 H25         37.4750    34.5250    -5.9700 ha         1 OZH       0.103000
     58 H26         37.8150    32.9440    -4.0720 ha         1 OZH       0.098000
     59 H27         38.6030    33.7990    -1.8670 ha         1 OZH       0.103000
     60 H29         39.0490    36.2230    -1.5540 ha         1 OZH       0.118500
     61 H30         33.5010    42.9300    -5.2210 hn         1 OZH       0.434000
     62 H31         35.8880    40.1430    -4.6590 hn         1 OZH       0.313500
     63 O1          36.0780    42.0250    -7.1570 o          1 OZH      -0.796500
     64 O2          35.3870    44.2540    -6.2200 o          1 OZH      -0.796500
     65 C15         37.6740    40.3420    -3.7420 c          1 OZH       0.629100
@<TRIPOS>BOND
     1     1    23 1   
     2     2    20 1   
     3     2    65 1   
     4     3     4 1   
     5     3    33 1   
     6     3    34 1   
     7     3    35 1   
     8     4     5 1   
     9     4    11 1   
    10     4    36 1   
    11     5    37 1   
    12     5    38 1   
    13     5    39 1   
    14     6    13 1   
    15     6    30 1   
    16     6    32 1   
    17     6    40 1   
    18     7     9 1   
    19     7    10 1   
    20     7    41 1   
    21     8     9 1   
    22     8    29 1   
    23     8    42 1   
    24     8    43 1   
    25     9    12 2   
    26    10    11 1   
    27    10    23 1   
    28    10    44 1   
    29    11    45 1   
    30    11    46 1   
    31    13    14 1   
    32    13    47 1   
    33    13    48 1   
    34    14    16 ar  
    35    14    21 ar  
    36    15    16 ar  
    37    15    17 ar  
    38    15    49 1   
    39    16    50 1   
    40    17    22 ar  
    41    17    51 1   
    42    18    19 ar  
    43    18    20 1   
    44    18    28 ar  
    45    19    24 ar  
    46    19    52 1   
    47    20    53 1   
    48    20    54 1   
    49    21    22 ar  
    50    21    55 1   
    51    22    56 1   
    52    23    31 1   
    53    24    25 ar  
    54    24    57 1   
    55    25    26 ar  
    56    25    58 1   
    57    26    28 ar  
    58    26    59 1   
    59    27    65 2   
    60    28    60 1   
    61    29    32 1   
    62    29    61 1   
    63    30    62 1   
    64    30    65 1   
    65    32    63 1   
    66    32    64 1   
@<TRIPOS>SUBSTRUCTURE
     1 OZH         1 TEMP              0 ****  ****    0 ROOT
