@<TRIPOS>MOLECULE
OZH
   65    66     1     0     0
SMALL
abcg2


@<TRIPOS>ATOM
      1 O5          33.1410    40.0670   -11.5730 o          1 OZH      -0.720500
      2 O4          38.6450    39.1400    -3.1890 os         1 OZH      -0.471100
      3 C2          29.8260    36.9680    -8.6700 c3         1 OZH      -0.080100
      4 C1          31.3350    37.1000    -8.8580 c3         1 OZH      -0.062700
      5 C           31.8740    35.9210    -9.6620 c3         1 OZH      -0.080100
      6 C7          36.3260    41.5890    -4.3940 c3         1 OZH      -0.217300
      7 N           33.6840    38.9740    -8.2220 ns         1 OZH      -0.442900
      8 C6          35.0710    38.6480    -6.2760 c3         1 OZH       0.169800
      9 C5          34.5320    38.1480    -7.6140 c          1 OZH       0.576100
     10 C4          33.1480    38.8270    -9.5530 c3         1 OZH      -0.039300
     11 C3          31.6630    38.4390    -9.5190 c3         1 OZH      -0.067400
     12 O           34.8930    37.0540    -8.0430 o          1 OZH      -0.707100
     13 C8          35.3640    41.9290    -3.2420 c3         1 OZH      -0.045100
     14 C9          36.0760    42.0280    -1.9240 ca         1 OZH      -0.042300
     15 C11         36.9780    40.9760     0.0630 ca         1 OZH      -0.118500
     16 C10         36.2520    40.9030    -1.1190 ca         1 OZH      -0.106500
     17 C12         37.5340    42.1830     0.4660 ca         1 OZH      -0.138000
     18 C17         39.9380    37.5920    -1.9820 ca         1 OZH      -0.077300
     19 C18         40.6150    36.5510    -2.6090 ca         1 OZH      -0.086500
     20 C16         39.9240    38.9690    -2.5760 c3         1 OZH       0.230900
     21 C14         36.6330    43.2340    -1.5030 ca         1 OZH      -0.106500
     22 C13         37.3530    43.3150    -0.3190 ca         1 OZH      -0.118500
     23 C23         33.3080    40.1530   -10.3420 c          1 OZH       0.709000
     24 C19         40.6010    35.2720    -2.0660 ca         1 OZH      -0.121500
     25 C20         39.9030    35.0230    -0.8930 ca         1 OZH      -0.116000
     26 C21         39.2240    36.0590    -0.2610 ca         1 OZH      -0.121500
     27 O3          39.0670    41.3280    -3.5260 o          1 OZH      -0.565000
     28 C22         39.2420    37.3340    -0.8030 ca         1 OZH      -0.086500
     29 N1          34.6040    39.9360    -5.8480 n7         1 OZH      -1.007500
     30 N2          37.0710    40.3840    -4.1040 ns         1 OZH      -0.430900
     31 O6          33.5520    41.1810    -9.6810 o          1 OZH      -0.720500
     32 P           35.4530    41.4030    -6.0290 p5         1 OZH       1.380300
     33 H1          29.5690    36.0290    -8.1760 hc         1 OZH       0.017533
     34 H2          29.4270    37.7830    -8.0630 hc         1 OZH       0.017533
     35 H3          29.3060    36.9870    -9.6310 hc         1 OZH       0.017533
     36 H4          31.7950    37.0810    -7.8650 hc         1 OZH       0.051700
     37 H5          31.6190    34.9730    -9.1850 hc         1 OZH       0.017533
     38 H6          31.4460    35.9120   -10.6680 hc         1 OZH       0.017533
     39 H7          32.9590    35.9560    -9.7600 hc         1 OZH       0.017533
     40 H8          37.0430    42.4040    -4.5060 h1         1 OZH       0.087700
     41 H9          33.5600    39.8820    -7.7950 hn         1 OZH       0.348500
     42 H10         34.8340    37.8820    -5.5320 h1         1 OZH       0.034200
     43 H11         36.1590    38.6480    -6.3670 h1         1 OZH       0.034200
     44 H12         33.7160    38.0490   -10.0670 h1         1 OZH       0.055700
     45 H13         31.1180    39.2370    -9.0010 hc         1 OZH       0.037200
     46 H14         31.2850    38.4250   -10.5460 hc         1 OZH       0.037200
     47 H15         34.8660    42.8700    -3.4780 hc         1 OZH       0.058700
     48 H16         34.5870    41.1620    -3.1870 hc         1 OZH       0.058700
     49 H17         37.1060    40.0880     0.6700 ha         1 OZH       0.092000
     50 H18         35.8120    39.9580    -1.4170 ha         1 OZH       0.112500
     51 H19         38.0980    42.2430     1.3880 ha         1 OZH       0.088000
     52 H20         41.1580    36.7420    -3.5270 ha         1 OZH       0.118500
     53 H21         40.7190    39.0830    -3.3170 h1         1 OZH       0.048700
     54 H22         40.0750    39.7230    -1.8000 h1         1 OZH       0.048700
     55 H23         36.5040    44.1210    -2.1130 ha         1 OZH       0.112500
     56 H24         37.7750    44.2620    -0.0090 ha         1 OZH       0.092000
     57 H25         41.1340    34.4710    -2.5620 ha         1 OZH       0.103000
     58 H26         39.8900    34.0270    -0.4700 ha         1 OZH       0.098000
     59 H27         38.6820    35.8700     0.6570 ha         1 OZH       0.103000
     60 H29         38.7160    38.1400    -0.3030 ha         1 OZH       0.118500
     61 H30         33.7550    39.9360    -5.3040 hn         1 OZH       0.434000
     62 H31         36.5320    39.5350    -4.0170 hn         1 OZH       0.313500
     63 O1          36.5000    41.1880    -7.0910 o          1 OZH      -0.796500
     64 O2          34.4400    42.5140    -6.1180 o          1 OZH      -0.796500
     65 C15         38.3160    40.3760    -3.5950 c          1 OZH       0.629100
@<TRIPOS>BOND
     1     1    23 1   
     2     2    20 1   
     3     2    65 1   
     4     3     4 1   
     5     3    33 1   
     6     3    34 1   
     7     3    35 1   
     8     4     5 1   
     9     4    11 1   
    10     4    36 1   
    11     5    37 1   
    12     5    38 1   
    13     5    39 1   
    14     6    13 1   
    15     6    30 1   
    16     6    32 1   
    17     6    40 1   
    18     7     9 1   
    19     7    10 1   
    20     7    41 1   
    21     8     9 1   
    22     8    29 1   
    23     8    42 1   
    24     8    43 1   
    25     9    12 2   
    26    10    11 1   
    27    10    23 1   
    28    10    44 1   
    29    11    45 1   
    30    11    46 1   
    31    13    14 1   
    32    13    47 1   
    33    13    48 1   
    34    14    16 ar  
    35    14    21 ar  
    36    15    16 ar  
    37    15    17 ar  
    38    15    49 1   
    39    16    50 1   
    40    17    22 ar  
    41    17    51 1   
    42    18    19 ar  
    43    18    20 1   
    44    18    28 ar  
    45    19    24 ar  
    46    19    52 1   
    47    20    53 1   
    48    20    54 1   
    49    21    22 ar  
    50    21    55 1   
    51    22    56 1   
    52    23    31 1   
    53    24    25 ar  
    54    24    57 1   
    55    25    26 ar  
    56    25    58 1   
    57    26    28 ar  
    58    26    59 1   
    59    27    65 2   
    60    28    60 1   
    61    29    32 1   
    62    29    61 1   
    63    30    62 1   
    64    30    65 1   
    65    32    63 1   
    66    32    64 1   
@<TRIPOS>SUBSTRUCTURE
     1 OZH         1 TEMP              0 ****  ****    0 ROOT
