@<TRIPOS>MOLECULE
OZJ
   31    33     1     0     0
SMALL
No Charge or Current Charge


@<TRIPOS>ATOM
      1 OAD         -6.0730    -1.5950     0.8400 o          1 OZJ      -0.510100
      2 CAF         -4.8480    -1.6580     0.8550 c          1 OZJ       0.583500
      3 CAP         -3.9580    -0.6410     0.1920 ca         1 OZJ      -0.198600
      4 CAJ         -2.5560    -0.7890     0.2560 ca         1 OZJ      -0.062000
      5 CAH         -4.5060     0.4620    -0.4950 ca         1 OZJ      -0.040000
      6 CAG         -3.6600     1.3970    -1.1120 ca         1 OZJ      -0.121000
      7 CAI         -2.2650     1.2440    -1.0430 ca         1 OZJ      -0.054000
      8 CAQ         -1.7010     0.1550    -0.3470 ca         1 OZJ      -0.058800
      9 CAS         -0.2500    -0.0350    -0.2740 cc         1 OZJ       0.025700
     10 NAM          0.4540    -1.2460    -0.3770 na         1 OZJ      -0.313400
     11 C4           1.8020    -1.0410    -0.1710 ca         1 OZJ       0.203500
     12 N3           2.8360    -1.8990    -0.1940 nb         1 OZJ      -0.305000
     13 C2           4.0370    -1.3530     0.0640 ca         1 OZJ       0.437900
     14 NAB          5.0900    -2.1970     0.0410 nv         1 OZJ      -1.052900
     15 N1           4.3250    -0.0710     0.3390 nb         1 OZJ      -0.355000
     16 C6           3.2780     0.7620     0.3580 ca         1 OZJ       0.476900
     17 NAC          3.5690     2.0540     0.6360 nv         1 OZJ      -1.067900
     18 C5           1.9860     0.2940     0.0990 ca         1 OZJ      -0.280800
     19 CAR          0.6850     0.9430     0.0570 cd         1 OZJ       0.000100
     20 CAE          0.3830     2.3030     0.3610 ch         1 OZJ       0.320700
     21 NAA          0.1720     3.4260     0.6040 n1         1 OZJ      -0.477000
     22 HAF         -4.3290    -2.4940     1.3740 h4         1 OZJ      -0.009800
     23 HAJ         -2.1280    -1.6360     0.7890 ha         1 OZJ       0.115000
     24 HAH         -5.5850     0.5940    -0.5580 ha         1 OZJ       0.137000
     25 HAG         -4.0860     2.2410    -1.6500 ha         1 OZJ       0.126000
     26 HAI         -1.6280     1.9660    -1.5470 ha         1 OZJ       0.128000
     27 HAM          0.0400    -2.1470    -0.5810 hn         1 OZJ       0.364000
     28 HAB1         4.9600    -3.1090    -0.3890 hn         1 OZJ       0.492000
     29 HAB2         6.0240    -1.7990    -0.0040 hn         1 OZJ       0.492000
     30 HAC1         4.5450     2.3360     0.5940 hn         1 OZJ       0.502000
     31 HAC2         2.8800     2.7690     0.4220 hn         1 OZJ       0.502000
@<TRIPOS>BOND
     1     1     2 2   
     2     2     3 1   
     3     2    22 1   
     4     3     4 ar  
     5     3     5 ar  
     6     4     8 ar  
     7     4    23 1   
     8     5     6 ar  
     9     5    24 1   
    10     6     7 ar  
    11     6    25 1   
    12     7     8 ar  
    13     7    26 1   
    14     8     9 1   
    15     9    10 1   
    16     9    19 2   
    17    10    11 1   
    18    10    27 1   
    19    11    12 ar  
    20    11    18 ar  
    21    12    13 ar  
    22    13    14 1   
    23    13    15 ar  
    24    14    28 1   
    25    14    29 1   
    26    15    16 ar  
    27    16    17 1   
    28    16    18 ar  
    29    17    30 1   
    30    17    31 1   
    31    18    19 1   
    32    19    20 1   
    33    20    21 3   
@<TRIPOS>SUBSTRUCTURE
     1 OZJ         1 TEMP              0 ****  ****    0 ROOT
