@<TRIPOS>MOLECULE
OZJ
   31    33     1     0     0
SMALL
abcg2


@<TRIPOS>ATOM
      1 OAD         -5.9130    -1.8610     0.6580 o          1 OZJ      -0.510100
      2 CAF         -4.7060    -1.8310     0.6750 c          1 OZJ       0.583500
      3 CAP         -3.8940    -0.7310     0.1260 ca         1 OZJ      -0.198600
      4 CAJ         -2.5120    -0.8190     0.2190 ca         1 OZJ      -0.062000
      5 CAH         -4.4890     0.3820    -0.4680 ca         1 OZJ      -0.040000
      6 CAG         -3.6890     1.3920    -0.9710 ca         1 OZJ      -0.121000
      7 CAI         -2.3070     1.3000    -0.8870 ca         1 OZJ      -0.054000
      8 CAQ         -1.7000     0.1980    -0.2830 ca         1 OZJ      -0.058800
      9 CAS         -0.2500     0.1060    -0.1770 cc         1 OZJ       0.025700
     10 NAM          0.4030    -1.0920    -0.2310 na         1 OZJ      -0.313400
     11 C4           1.7440    -0.9150    -0.0800 ca         1 OZJ       0.203500
     12 N3           2.6570    -1.8760    -0.0970 nb         1 OZJ      -0.305000
     13 C2           3.8930    -1.4140     0.0830 ca         1 OZJ       0.437900
     14 NAB          4.8910    -2.3240     0.1290 nv         1 OZJ      -1.052900
     15 N1           4.2580    -0.1340     0.2550 nb         1 OZJ      -0.355000
     16 C6           3.3270     0.8120     0.2620 ca         1 OZJ       0.476900
     17 NAC          3.7140     2.0790     0.4510 nv         1 OZJ      -1.067900
     18 C5           1.9740     0.4470     0.0880 ca         1 OZJ      -0.280800
     19 CAR          0.6960     1.0930     0.0270 cd         1 OZJ       0.000100
     20 CAE          0.4390     2.4620     0.2260 ch         1 OZJ       0.320700
     21 NAA          0.2700     3.5920     0.3950 n1         1 OZJ      -0.477000
     22 HAF         -4.1220    -2.6560     1.1180 h4         1 OZJ      -0.009800
     23 HAJ         -2.0720    -1.6820     0.7070 ha         1 OZJ       0.115000
     24 HAH         -5.5670     0.4510    -0.5390 ha         1 OZJ       0.137000
     25 HAG         -4.1380     2.2550    -1.4450 ha         1 OZJ       0.126000
     26 HAI         -1.7030     2.0860    -1.3210 ha         1 OZJ       0.128000
     27 HAM         -0.0320    -1.9790    -0.4370 hn         1 OZJ       0.364000
     28 HAB1         4.7030    -3.2540    -0.2030 hn         1 OZJ       0.492000
     29 HAB2         5.8370    -1.9970     0.0360 hn         1 OZJ       0.492000
     30 HAC1         4.6970     2.2920     0.4850 hn         1 OZJ       0.502000
     31 HAC2         3.0820     2.8520     0.3360 hn         1 OZJ       0.502000
@<TRIPOS>BOND
     1     1     2 2   
     2     2     3 1   
     3     2    22 1   
     4     3     4 ar  
     5     3     5 ar  
     6     4     8 ar  
     7     4    23 1   
     8     5     6 ar  
     9     5    24 1   
    10     6     7 ar  
    11     6    25 1   
    12     7     8 ar  
    13     7    26 1   
    14     8     9 1   
    15     9    10 1   
    16     9    19 2   
    17    10    11 1   
    18    10    27 1   
    19    11    12 ar  
    20    11    18 ar  
    21    12    13 ar  
    22    13    14 1   
    23    13    15 ar  
    24    14    28 1   
    25    14    29 1   
    26    15    16 ar  
    27    16    17 1   
    28    16    18 ar  
    29    17    30 1   
    30    17    31 1   
    31    18    19 1   
    32    19    20 1   
    33    20    21 3   
@<TRIPOS>SUBSTRUCTURE
     1 OZJ         1 TEMP              0 ****  ****    0 ROOT
