@<TRIPOS>MOLECULE
OZK
   67    71     1     0     0
SMALL
No Charge or Current Charge


@<TRIPOS>ATOM
      1 C1         -17.8760   -12.2270   -14.3730 c3         1 OZK      -0.112600
      2 C2         -18.7170   -13.4020   -13.8230 c3         1 OZK       0.183200
      3 C3         -20.0410   -13.5180   -14.6160 c3         1 OZK      -0.112600
      4 O1         -18.8660   -16.1530   -12.2020 o          1 OZK      -0.585100
      5 O2         -19.5350   -20.4410   -13.4560 os         1 OZK      -0.352100
      6 C11        -23.5760   -20.7880   -12.4900 ca         1 OZK      -0.097000
      7 C12        -22.5980   -21.1840   -11.5640 ca         1 OZK      -0.111000
      8 C13        -21.2380   -21.0600   -11.8920 ca         1 OZK      -0.103000
      9 C15        -21.2960   -20.9660   -17.4570 ca         1 OZK      -0.077300
     10 C16        -20.9650   -22.2400   -16.9580 ca         1 OZK      -0.095500
     11 C17        -20.1820   -23.1200   -17.7230 ca         1 OZK      -0.088000
     12 C18        -19.7040   -22.7440   -19.0010 cp         1 OZK      -0.049000
     13 C19        -20.0590   -21.4680   -19.4990 ca         1 OZK      -0.088000
     14 C20        -20.8420   -20.5870   -18.7340 ca         1 OZK      -0.095500
     15 C21        -18.8770   -23.6800   -19.8200 cp         1 OZK       0.024000
     16 C22        -17.6530   -24.2480   -19.3470 ca         1 OZK      -0.140500
     17 C23        -16.9630   -25.1630   -20.1810 ca         1 OZK      -0.093000
     18 C24        -17.4650   -25.5200   -21.4420 ca         1 OZK      -0.113000
     19 C25        -18.6620   -24.9620   -21.9050 ca         1 OZK      -0.089000
     20 C26        -19.3570   -24.0500   -21.1000 ca         1 OZK      -0.106000
     21 C27        -17.0100   -23.8590   -18.0790 cc         1 OZK       0.453000
     22 C28        -20.4250   -18.6190   -15.4490 c          1 OZK       0.554000
     23 C6         -19.7990   -18.0920   -14.1280 c3         1 OZK       0.000700
     24 N2         -19.0570   -16.8270   -14.3690 ns         1 OZK      -0.498900
     25 C5         -18.6560   -15.9450   -13.3890 c          1 OZK       0.624100
     26 C4         -17.8920   -14.7140   -13.8870 c3         1 OZK      -0.149400
     27 N1         -19.0420   -13.1000   -12.4280 n8         1 OZK      -0.978200
     28 N3         -21.4460   -19.6020   -15.3610 n          1 OZK      -0.232400
     29 C9         -21.8360   -20.2430   -14.1260 ca         1 OZK      -0.051000
     30 C10        -23.1970   -20.2970   -13.7530 ca         1 OZK      -0.117000
     31 C8         -20.8660   -20.5560   -13.1490 ca         1 OZK       0.071100
     32 C7         -18.9050   -19.1500   -13.4320 c3         1 OZK       0.157600
     33 N7         -16.1370   -24.6270   -17.3620 na         1 OZK      -0.214700
     34 N6         -15.6960   -23.9570   -16.2670 nc         1 OZK      -0.213800
     35 N5         -16.2890   -22.7970   -16.3380 nd         1 OZK      -0.044000
     36 N4         -17.0950   -22.7040   -17.4490 nd         1 OZK      -0.358000
     37 H1         -16.9370   -12.1160   -13.8170 hc         1 OZK       0.043033
     38 H2         -17.6240   -12.3910   -15.4280 hc         1 OZK       0.043033
     39 H3         -18.4260   -11.2800   -14.3040 hc         1 OZK       0.043033
     40 H4         -19.8450   -13.7780   -15.6640 hc         1 OZK       0.043033
     41 H5         -20.7000   -14.2870   -14.1940 hc         1 OZK       0.043033
     42 H6         -20.5890   -12.5680   -14.6040 hc         1 OZK       0.043033
     43 H7         -24.6290   -20.8480   -12.2260 ha         1 OZK       0.120000
     44 H8         -22.8910   -21.5650   -10.5880 ha         1 OZK       0.119000
     45 H9         -20.4750   -21.3410   -11.1720 ha         1 OZK       0.127000
     46 H10        -22.3800   -19.1130   -17.1940 h1         1 OZK       0.062700
     47 H11        -23.0780   -20.5070   -16.3760 h1         1 OZK       0.062700
     48 H12        -21.3120   -22.5480   -15.9730 ha         1 OZK       0.121500
     49 H13        -19.9380   -24.1010   -17.3240 ha         1 OZK       0.110500
     50 H14        -19.7110   -21.1580   -20.4810 ha         1 OZK       0.110500
     51 H15        -21.0880   -19.6050   -19.1330 ha         1 OZK       0.121500
     52 H16        -16.0140   -25.5910   -19.8670 ha         1 OZK       0.115000
     53 H17        -16.9170   -26.2240   -22.0660 ha         1 OZK       0.120000
     54 H18        -19.0520   -25.2360   -22.8830 ha         1 OZK       0.119000
     55 H19        -20.2930   -23.6300   -21.4620 ha         1 OZK       0.124000
     56 H20        -20.6400   -17.8650   -13.4610 h1         1 OZK       0.099700
     57 H21        -18.8390   -16.5760   -15.3280 hn         1 OZK       0.319500
     58 H22        -17.5910   -14.8750   -14.9290 hc         1 OZK       0.058700
     59 H23        -16.9920   -14.5970   -13.2720 hc         1 OZK       0.058700
     60 H24        -18.9680   -13.9660   -11.8800 hn         1 OZK       0.394500
     61 H25        -18.3090   -12.4990   -12.0370 hn         1 OZK       0.394500
     62 H27        -23.9720   -19.9580   -14.4360 ha         1 OZK       0.125000
     63 H28        -17.9350   -19.2040   -13.9430 h1         1 OZK       0.061200
     64 H29        -18.7200   -18.8380   -12.3960 h1         1 OZK       0.061200
     65 H30        -15.8460   -25.5730   -17.5730 hn         1 OZK       0.384000
     66 O3         -20.0780   -18.1530   -16.5310 o          1 OZK      -0.508000
     67 C14        -22.1300   -20.0100   -16.6120 c3         1 OZK       0.156300
@<TRIPOS>BOND
     1     1     2 1   
     2     1    37 1   
     3     1    38 1   
     4     1    39 1   
     5     2     3 1   
     6     2    26 1   
     7     2    27 1   
     8     3    40 1   
     9     3    41 1   
    10     3    42 1   
    11     4    25 2   
    12     5    31 1   
    13     5    32 1   
    14     6     7 ar  
    15     6    30 ar  
    16     6    43 1   
    17     7     8 ar  
    18     7    44 1   
    19     8    31 ar  
    20     8    45 1   
    21     9    10 ar  
    22     9    14 ar  
    23     9    67 1   
    24    10    11 ar  
    25    10    48 1   
    26    11    12 ar  
    27    11    49 1   
    28    12    13 ar  
    29    12    15 1   
    30    13    14 ar  
    31    13    50 1   
    32    14    51 1   
    33    15    16 ar  
    34    15    20 ar  
    35    16    17 ar  
    36    16    21 1   
    37    17    18 ar  
    38    17    52 1   
    39    18    19 ar  
    40    18    53 1   
    41    19    20 ar  
    42    19    54 1   
    43    20    55 1   
    44    21    33 1   
    45    21    36 2   
    46    22    23 1   
    47    22    28 1   
    48    22    66 2   
    49    23    24 1   
    50    23    32 1   
    51    23    56 1   
    52    24    25 1   
    53    24    57 1   
    54    25    26 1   
    55    26    58 1   
    56    26    59 1   
    57    27    60 1   
    58    27    61 1   
    59    28    29 1   
    60    28    67 1   
    61    29    30 ar  
    62    29    31 ar  
    63    30    62 1   
    64    32    63 1   
    65    32    64 1   
    66    33    34 1   
    67    33    65 1   
    68    34    35 2   
    69    35    36 1   
    70    46    67 1   
    71    47    67 1   
@<TRIPOS>SUBSTRUCTURE
     1 OZK         1 TEMP              0 ****  ****    0 ROOT
