@<TRIPOS>MOLECULE
OZK
   67    71     1     0     0
SMALL
bcc


@<TRIPOS>ATOM
      1 C1         -17.1080   -13.4030   -14.5940 c3         1 OZK      -0.112600
      2 C2         -18.1440   -14.5240   -14.7360 c3         1 OZK       0.183200
      3 C3         -17.5840   -15.6120   -15.6500 c3         1 OZK      -0.112600
      4 O1         -20.6980   -15.8510   -13.1180 o          1 OZK      -0.585100
      5 O2         -19.9240   -20.9450   -12.9810 os         1 OZK      -0.328900
      6 C11        -23.9740   -20.9600   -12.1660 ca         1 OZK      -0.115000
      7 C12        -23.0940   -21.5990   -11.3030 ca         1 OZK      -0.129000
      8 C13        -21.7310   -21.5710   -11.5590 ca         1 OZK      -0.121000
      9 C15        -21.3760   -20.6940   -16.9600 ca         1 OZK      -0.077300
     10 C16        -20.4110   -21.5910   -16.5180 ca         1 OZK      -0.113500
     11 C17        -19.6630   -22.3260   -17.4220 ca         1 OZK      -0.106000
     12 C18        -19.8640   -22.1940   -18.7940 cp         1 OZK      -0.049000
     13 C19        -20.8460   -21.3130   -19.2360 ca         1 OZK      -0.106000
     14 C20        -21.5850   -20.5680   -18.3300 ca         1 OZK      -0.113500
     15 C21        -19.0740   -22.9970   -19.7520 cp         1 OZK       0.024000
     16 C22        -17.6730   -22.9940   -19.7450 ca         1 OZK      -0.140500
     17 C23        -16.9620   -23.8270   -20.6060 ca         1 OZK      -0.111000
     18 C24        -17.6310   -24.6530   -21.4950 ca         1 OZK      -0.131000
     19 C25        -19.0190   -24.6400   -21.5310 ca         1 OZK      -0.107000
     20 C26        -19.7280   -23.8210   -20.6650 ca         1 OZK      -0.124000
     21 C27        -16.9260   -22.0770   -18.8830 cc         1 OZK       0.453000
     22 C28        -20.5610   -18.7960   -14.6810 c          1 OZK       0.696500
     23 C6         -19.9760   -18.5140   -13.2940 c3         1 OZK       0.000700
     24 N2         -19.0790   -17.4000   -13.3070 ns         1 OZK      -0.565900
     25 C5         -19.5170   -16.1200   -13.2550 c          1 OZK       0.691100
     26 C4         -18.4340   -15.0680   -13.3220 c3         1 OZK      -0.149400
     27 N1         -19.3970   -14.0510   -15.3160 n8         1 OZK      -0.867800
     28 N3         -21.6290   -19.6410   -14.7180 n          1 OZK      -0.392000
     29 C9         -22.1310   -20.2780   -13.5620 ca         1 OZK       0.041600
     30 C10        -23.4940   -20.2970   -13.2850 ca         1 OZK      -0.135000
     31 C8         -21.2530   -20.9250   -12.6890 ca         1 OZK       0.071100
     32 C7         -19.2300   -19.7350   -12.7420 c3         1 OZK       0.134400
     33 N7         -15.9220   -22.4240   -18.0750 na         1 OZK      -0.164400
     34 N6         -15.4510   -21.3430   -17.4790 nc         1 OZK      -0.213800
     35 N5         -16.1460   -20.3650   -17.9130 nd         1 OZK      -0.044000
     36 N4         -17.0660   -20.7750   -18.7830 nd         1 OZK      -0.358000
     37 H1         -17.4920   -12.5910   -13.9720 hc         1 OZK       0.043033
     38 H2         -16.1770   -13.7560   -14.1450 hc         1 OZK       0.043033
     39 H3         -16.8650   -12.9870   -15.5750 hc         1 OZK       0.043033
     40 H4         -16.6510   -16.0220   -15.2570 hc         1 OZK       0.043033
     41 H5         -18.2930   -16.4270   -15.7850 hc         1 OZK       0.043033
     42 H6         -17.3630   -15.1950   -16.6360 hc         1 OZK       0.043033
     43 H7         -25.0370   -20.9690   -11.9650 ha         1 OZK       0.138000
     44 H8         -23.4650   -22.1120   -10.4270 ha         1 OZK       0.137000
     45 H9         -21.0330   -22.0660   -10.8960 ha         1 OZK       0.145000
     46 H10        -22.5260   -18.9540   -16.4820 h1         1 OZK       0.062700
     47 H11        -23.1680   -20.4450   -15.8380 h1         1 OZK       0.062700
     48 H12        -20.2210   -21.7170   -15.4600 ha         1 OZK       0.139500
     49 H13        -18.9240   -23.0250   -17.0470 ha         1 OZK       0.128500
     50 H14        -21.0200   -21.1860   -20.2980 ha         1 OZK       0.128500
     51 H15        -22.3310   -19.8730   -18.6990 ha         1 OZK       0.139500
     52 H16        -15.8800   -23.8100   -20.6010 ha         1 OZK       0.133000
     53 H17        -17.0700   -25.2920   -22.1630 ha         1 OZK       0.138000
     54 H18        -19.5520   -25.2740   -22.2260 ha         1 OZK       0.137000
     55 H19        -20.8110   -23.8380   -20.6770 ha         1 OZK       0.142000
     56 H20        -20.8020   -18.2680   -12.6200 h1         1 OZK       0.099700
     57 H21        -18.1100   -17.5700   -13.5240 hn         1 OZK       0.319500
     58 H22        -17.5030   -15.4500   -12.8960 hc         1 OZK       0.058700
     59 H23        -18.7550   -14.2360   -12.6890 hc         1 OZK       0.058700
     60 H24        -19.7910   -13.3240   -14.7280 hn         1 OZK       0.339300
     61 H25        -19.1980   -13.6040   -16.2040 hn         1 OZK       0.339300
     62 H27        -24.1840   -19.7830   -13.9430 ha         1 OZK       0.143000
     63 H28        -18.2640   -19.8450   -13.2370 h1         1 OZK       0.061200
     64 H29        -19.0550   -19.5890   -11.6710 h1         1 OZK       0.061200
     65 H30        -15.5360   -23.3370   -17.8770 hn         1 OZK       0.333700
     66 O3         -20.1200   -18.2820   -15.6870 o          1 OZK      -0.583500
     67 C14        -22.2410   -19.8980   -16.0140 c3         1 OZK       0.156300
@<TRIPOS>BOND
     1     1     2 1   
     2     1    37 1   
     3     1    38 1   
     4     1    39 1   
     5     2     3 1   
     6     2    26 1   
     7     2    27 1   
     8     3    40 1   
     9     3    41 1   
    10     3    42 1   
    11     4    25 2   
    12     5    31 1   
    13     5    32 1   
    14     6     7 ar  
    15     6    30 ar  
    16     6    43 1   
    17     7     8 ar  
    18     7    44 1   
    19     8    31 ar  
    20     8    45 1   
    21     9    10 ar  
    22     9    14 ar  
    23     9    67 1   
    24    10    11 ar  
    25    10    48 1   
    26    11    12 ar  
    27    11    49 1   
    28    12    13 ar  
    29    12    15 1   
    30    13    14 ar  
    31    13    50 1   
    32    14    51 1   
    33    15    16 ar  
    34    15    20 ar  
    35    16    17 ar  
    36    16    21 1   
    37    17    18 ar  
    38    17    52 1   
    39    18    19 ar  
    40    18    53 1   
    41    19    20 ar  
    42    19    54 1   
    43    20    55 1   
    44    21    33 1   
    45    21    36 2   
    46    22    23 1   
    47    22    28 1   
    48    22    66 2   
    49    23    24 1   
    50    23    32 1   
    51    23    56 1   
    52    24    25 1   
    53    24    57 1   
    54    25    26 1   
    55    26    58 1   
    56    26    59 1   
    57    27    60 1   
    58    27    61 1   
    59    28    29 1   
    60    28    67 1   
    61    29    30 ar  
    62    29    31 ar  
    63    30    62 1   
    64    32    63 1   
    65    32    64 1   
    66    33    34 1   
    67    33    65 1   
    68    34    35 2   
    69    35    36 1   
    70    46    67 1   
    71    47    67 1   
@<TRIPOS>SUBSTRUCTURE
     1 OZK         1 TEMP              0 ****  ****    0 ROOT
