@<TRIPOS>MOLECULE
OZL
   77    79     1     0     0
SMALL
abcg2


@<TRIPOS>ATOM
      1 N1          -0.8030    17.2060     5.1270 ns         1 OZL      -0.510900
      2 N3          -2.1410    20.0260     6.4970 n1         1 OZL      -0.443000
      3 C4          -3.2060    15.4260     5.0770 c5         1 OZL      -0.147700
      4 C5          -4.1250    15.3810     3.8290 c5         1 OZL      -0.093400
      5 C6          -4.7270    13.9500     3.8160 c5         1 OZL       0.105000
      6 C7          -3.7460    14.2830     5.9760 c          1 OZL       0.551000
      7 C8          -2.1510    19.0320     5.8770 c1         1 OZL       0.279900
      8 C10          2.6900    17.9520     4.0170 c5         1 OZL      -0.057400
      9 C13          6.2700    16.9020     2.4320 c5         1 OZL       0.059600
     10 C15          1.0520    14.7060     4.1230 c          1 OZL       0.589100
     11 C17          3.2180    12.1890     3.8460 c          1 OZL       0.657100
     12 C20         -1.0890    12.3430     3.7680 c3         1 OZL      -0.088767
     13 C21          0.1070    11.9070     1.6200 c3         1 OZL      -0.088767
     14 C22         -0.8940    14.1590     2.0360 c3         1 OZL      -0.088767
     15 C24          6.1720    11.9280     4.7170 c3         1 OZL      -0.104100
     16 C1           0.1790    17.7670     4.3960 c          1 OZL       0.589100
     17 C11          3.6350    16.9830     3.3020 c5         1 OZL       0.213000
     18 C12          5.9180    15.6480     3.2140 c5         1 OZL       0.059600
     19 C14          2.6500    15.9960     2.6530 c5         1 OZL       0.111000
     20 C16          1.1830    13.4500     3.2580 c3         1 OZL       0.063700
     21 C18          5.1280    10.8070     4.7710 c3         1 OZL       0.146400
     22 C19         -0.1870    12.9640     2.6920 c3         1 OZL      -0.046000
     23 C2          -2.1500    17.7460     5.1490 c3         1 OZL       0.194800
     24 C23          5.3100     9.8430     3.5880 c3         1 OZL      -0.104100
     25 C25          5.2790    10.0450     6.0900 c3         1 OZL      -0.104100
     26 C3          -3.1440    16.7700     5.8050 c3         1 OZL      -0.070400
     27 C9           1.5480    17.0690     4.5270 c5         1 OZL       0.021700
     28 N2          -4.5670    13.5060     5.2030 ns         1 OZL      -0.520900
     29 N4           1.6250    15.8490     3.6910 n          1 OZL      -0.394800
     30 N5           1.8770    12.4350     4.0220 ns         1 OZL      -0.515900
     31 N6           3.7580    11.3570     4.7800 ns         1 OZL      -0.514900
     32 O1           0.0010    18.7590     3.6950 o          1 OZL      -0.594100
     33 O2          -3.4570    14.0700     7.1890 o          1 OZL      -0.562000
     34 O3           3.8570    12.6890     2.9060 o          1 OZL      -0.672100
     35 O4           0.4310    14.6640     5.1960 o          1 OZL      -0.642100
     36 S1           4.7280    16.1300     4.4960 ss         1 OZL      -0.406500
     37 S2           4.7160    17.8050     2.0600 ss         1 OZL      -0.406500
     38 H1          -0.5930    16.3350     5.6050 hn         1 OZL       0.362500
     39 H3          -2.1980    15.1130     4.7890 hc         1 OZL       0.090700
     40 H4          -3.5720    15.5950     2.9040 hc         1 OZL       0.059700
     41 H5          -4.9200    16.1260     3.9370 hc         1 OZL       0.059700
     42 H6          -5.7830    13.9420     3.5380 h1         1 OZL       0.047200
     43 H7          -4.1780    13.2860     3.1290 h1         1 OZL       0.047200
     44 H9           3.1750    18.5140     4.8120 hc         1 OZL       0.093700
     45 H10          2.2910    18.6550     3.2870 hc         1 OZL       0.093700
     46 H11          6.7500    16.6540     1.4840 h1         1 OZL       0.088700
     47 H12          6.9220    17.5580     3.0100 h1         1 OZL       0.088700
     48 H13         -1.3000    13.0460     4.5710 hc         1 OZL       0.040256
     49 H14         -2.0360    12.0400     3.3160 hc         1 OZL       0.040256
     50 H15         -0.6330    11.4500     4.2020 hc         1 OZL       0.040256
     51 H16          0.6280    11.0480     2.0500 hc         1 OZL       0.040256
     52 H17         -0.8240    11.5520     1.1770 hc         1 OZL       0.040256
     53 H18          0.7290    12.3200     0.8200 hc         1 OZL       0.040256
     54 H19         -1.1260    14.9410     2.7600 hc         1 OZL       0.040256
     55 H20         -0.2750    14.5970     1.2500 hc         1 OZL       0.040256
     56 H21         -1.8350    13.8340     1.5870 hc         1 OZL       0.040256
     57 H22          6.0130    12.6400     5.5300 hc         1 OZL       0.045922
     58 H23          7.1670    11.4950     4.8270 hc         1 OZL       0.045922
     59 H24          6.1210    12.4610     3.7730 hc         1 OZL       0.045922
     60 H25          5.4650    14.8940     2.5690 h1         1 OZL       0.088700
     61 H26          6.7920    15.2200     3.7050 h1         1 OZL       0.088700
     62 H27          2.2270    16.4280     1.7430 h1         1 OZL       0.085200
     63 H28          3.1250    15.0480     2.4230 h1         1 OZL       0.085200
     64 H29          1.8050    13.6590     2.3930 h1         1 OZL       0.093700
     65 H30         -2.4760    17.9640     4.1270 h1         1 OZL       0.083700
     66 H31          6.3120     9.4080     3.6070 hc         1 OZL       0.045922
     67 H32          4.5800     9.0340     3.6450 hc         1 OZL       0.045922
     68 H33          5.1760    10.3700     2.6450 hc         1 OZL       0.045922
     69 H34          5.1530    10.7200     6.9410 hc         1 OZL       0.045922
     70 H35          4.5390     9.2450     6.1650 hc         1 OZL       0.045922
     71 H36          6.2710     9.5970     6.1460 hc         1 OZL       0.045922
     72 H37         -2.8700    16.6210     6.8550 hc         1 OZL       0.076200
     73 H38         -4.1300    17.2380     5.7860 hc         1 OZL       0.076200
     74 H39          1.6910    16.7730     5.5670 h1         1 OZL       0.090700
     75 H40         -4.9650    12.6390     5.5580 hn         1 OZL       0.333500
     76 H41          1.4250    12.0950     4.8580 hn         1 OZL       0.320500
     77 H42          3.1100    10.8860     5.3910 hn         1 OZL       0.304500
@<TRIPOS>BOND
     1     1    16 1   
     2     1    23 1   
     3     1    38 1   
     4     2     7 3   
     5     3     4 1   
     6     3     6 1   
     7     3    26 1   
     8     3    39 1   
     9     4     5 1   
    10     4    40 1   
    11     4    41 1   
    12     5    28 1   
    13     5    42 1   
    14     5    43 1   
    15     6    28 1   
    16     6    33 2   
    17     7    23 1   
    18     8    17 1   
    19     8    27 1   
    20     8    44 1   
    21     8    45 1   
    22     9    18 1   
    23     9    37 1   
    24     9    46 1   
    25     9    47 1   
    26    10    20 1   
    27    10    29 1   
    28    10    35 2   
    29    11    30 1   
    30    11    31 1   
    31    11    34 2   
    32    12    22 1   
    33    12    48 1   
    34    12    49 1   
    35    12    50 1   
    36    13    22 1   
    37    13    51 1   
    38    13    52 1   
    39    13    53 1   
    40    14    22 1   
    41    14    54 1   
    42    14    55 1   
    43    14    56 1   
    44    15    21 1   
    45    15    57 1   
    46    15    58 1   
    47    15    59 1   
    48    16    27 1   
    49    16    32 2   
    50    17    19 1   
    51    17    36 1   
    52    17    37 1   
    53    18    36 1   
    54    18    60 1   
    55    18    61 1   
    56    19    29 1   
    57    19    62 1   
    58    19    63 1   
    59    20    22 1   
    60    20    30 1   
    61    20    64 1   
    62    21    24 1   
    63    21    25 1   
    64    21    31 1   
    65    23    26 1   
    66    23    65 1   
    67    24    66 1   
    68    24    67 1   
    69    24    68 1   
    70    25    69 1   
    71    25    70 1   
    72    25    71 1   
    73    26    72 1   
    74    26    73 1   
    75    27    29 1   
    76    27    74 1   
    77    28    75 1   
    78    30    76 1   
    79    31    77 1   
@<TRIPOS>SUBSTRUCTURE
     1 OZL         1 TEMP              0 ****  ****    0 ROOT
