@<TRIPOS>MOLECULE
OZL
   77    79     1     0     0
SMALL
No Charge or Current Charge


@<TRIPOS>ATOM
      1 N1          -0.5050    16.4800     5.6990 ns         1 OZL      -0.510900
      2 N3          -1.4490    15.9730     8.9650 n1         1 OZL      -0.443000
      3 C4          -3.0200    15.7340     4.2140 c5         1 OZL      -0.147700
      4 C5          -3.5610    17.1190     3.7660 c5         1 OZL      -0.093400
      5 C6          -4.0910    16.7910     2.3430 c5         1 OZL       0.105000
      6 C7          -4.0300    14.7620     3.5910 c          1 OZL       0.551000
      7 C8          -1.6120    16.2220     7.8370 c1         1 OZL       0.279900
      8 C10          1.6410    18.1580     3.2380 c5         1 OZL      -0.057400
      9 C13          4.2330    19.1520     0.9630 c5         1 OZL       0.059600
     10 C15          1.7070    14.6420     4.5560 c          1 OZL       0.589100
     11 C17          3.5000    11.4540     4.3910 c          1 OZL       0.657100
     12 C20         -0.5870    12.5590     4.3570 c3         1 OZL      -0.088767
     13 C21          0.6840    11.3090     2.5760 c3         1 OZL      -0.088767
     14 C22         -0.1060    13.6410     2.1300 c3         1 OZL      -0.088767
     15 C24          6.3090    10.2740     5.1650 c3         1 OZL      -0.104100
     16 C1           0.1260    17.5810     5.1730 c          1 OZL       0.589100
     17 C11          2.7580    17.4650     2.4370 c5         1 OZL       0.213000
     18 C12          5.2500    18.2610     1.7120 c5         1 OZL       0.059600
     19 C14          2.3550    15.9690     2.5010 c5         1 OZL       0.111000
     20 C16          1.8300    13.2640     3.8050 c3         1 OZL       0.063700
     21 C18          4.9270     9.6380     5.4600 c3         1 OZL       0.146400
     22 C19          0.4690    12.7060     3.2280 c3         1 OZL      -0.046000
     23 C2          -1.8000    16.5110     6.4010 c3         1 OZL       0.194800
     24 C23          4.6120     8.5210     4.4320 c3         1 OZL      -0.104100
     25 C25          4.9470     9.0250     6.8800 c3         1 OZL      -0.104100
     26 C3          -2.8310    15.5550     5.7470 c3         1 OZL      -0.070400
     27 C9           1.4850    17.2100     4.4690 c5         1 OZL       0.021700
     28 N2          -4.6100    15.4410     2.5550 ns         1 OZL      -0.520900
     29 N4           1.6700    15.8540     3.8230 n          1 OZL      -0.394800
     30 N5           2.4730    12.2920     4.7240 ns         1 OZL      -0.515900
     31 N6           3.8740    10.6610     5.4470 ns         1 OZL      -0.514900
     32 O1          -0.3770    18.6950     5.2150 o          1 OZL      -0.594100
     33 O2          -4.4560    13.7020     4.0180 o          1 OZL      -0.562000
     34 O3           4.0130    11.4320     3.2860 o          1 OZL      -0.672100
     35 O4           1.5870    14.6780     5.7760 o          1 OZL      -0.642100
     36 S1           4.4040    17.7270     3.2790 ss         1 OZL      -0.406500
     37 S2           2.7550    18.0670     0.6800 ss         1 OZL      -0.406500
     38 H1           0.0430    15.6240     5.7220 hn         1 OZL       0.362500
     39 H3          -2.0690    15.5660     3.6990 hc         1 OZL       0.090700
     40 H4          -2.7960    17.9040     3.7590 hc         1 OZL       0.059700
     41 H5          -4.3780    17.4580     4.4150 hc         1 OZL       0.059700
     42 H6          -4.8640    17.5000     2.0170 h1         1 OZL       0.047200
     43 H7          -3.2810    16.7940     1.6010 h1         1 OZL       0.047200
     44 H9           1.8980    19.1850     3.5200 hc         1 OZL       0.093700
     45 H10          0.7150    18.2030     2.6520 hc         1 OZL       0.093700
     46 H11          4.6320    19.5070     0.0030 h1         1 OZL       0.088700
     47 H12          3.9500    20.0290     1.5610 h1         1 OZL       0.088700
     48 H13         -0.7970    13.5250     4.8260 hc         1 OZL       0.040256
     49 H14         -1.5330    12.1680     3.9620 hc         1 OZL       0.040256
     50 H15         -0.2420    11.8710     5.1390 hc         1 OZL       0.040256
     51 H16          0.9840    10.5590     3.3170 hc         1 OZL       0.040256
     52 H17         -0.2400    10.9490     2.1060 hc         1 OZL       0.040256
     53 H18          1.4590    11.3540     1.8020 hc         1 OZL       0.040256
     54 H19         -0.3190    14.6410     2.5190 hc         1 OZL       0.040256
     55 H20          0.5940    13.7360     1.2920 hc         1 OZL       0.040256
     56 H21         -1.0470    13.2420     1.7300 hc         1 OZL       0.040256
     57 H22          6.5160    11.0950     5.8610 hc         1 OZL       0.045922
     58 H23          7.1080     9.5300     5.2710 hc         1 OZL       0.045922
     59 H24          6.3620    10.6710     4.1450 hc         1 OZL       0.045922
     60 H25          5.5210    17.3800     1.1150 h1         1 OZL       0.088700
     61 H26          6.1730    18.8070     1.9490 h1         1 OZL       0.088700
     62 H27          1.6680    15.7230     1.6830 h1         1 OZL       0.085200
     63 H28          3.2410    15.3270     2.4140 h1         1 OZL       0.085200
     64 H29          2.5110    13.4130     2.9600 h1         1 OZL       0.093700
     65 H30         -2.2130    17.5260     6.3400 h1         1 OZL       0.083700
     66 H31          5.3420     7.7060     4.5090 hc         1 OZL       0.045922
     67 H32          3.6150     8.0990     4.6090 hc         1 OZL       0.045922
     68 H33          4.6440     8.8970     3.4040 hc         1 OZL       0.045922
     69 H34          5.1620     9.7910     7.6350 hc         1 OZL       0.045922
     70 H35          3.9790     8.5690     7.1240 hc         1 OZL       0.045922
     71 H36          5.7160     8.2470     6.9600 hc         1 OZL       0.045922
     72 H37         -2.5350    14.5200     5.9570 hc         1 OZL       0.076200
     73 H38         -3.7980    15.6910     6.2490 hc         1 OZL       0.076200
     74 H39          2.2790    17.3780     5.2090 h1         1 OZL       0.090700
     75 H40         -5.3810    15.0110     2.0570 hn         1 OZL       0.333500
     76 H41          2.1510    12.2720     5.6830 hn         1 OZL       0.320500
     77 H42          3.3560    10.7940     6.3040 hn         1 OZL       0.304500
@<TRIPOS>BOND
     1     1    16 1   
     2     1    23 1   
     3     1    38 1   
     4     2     7 3   
     5     3     4 1   
     6     3     6 1   
     7     3    26 1   
     8     3    39 1   
     9     4     5 1   
    10     4    40 1   
    11     4    41 1   
    12     5    28 1   
    13     5    42 1   
    14     5    43 1   
    15     6    28 1   
    16     6    33 2   
    17     7    23 1   
    18     8    17 1   
    19     8    27 1   
    20     8    44 1   
    21     8    45 1   
    22     9    18 1   
    23     9    37 1   
    24     9    46 1   
    25     9    47 1   
    26    10    20 1   
    27    10    29 1   
    28    10    35 2   
    29    11    30 1   
    30    11    31 1   
    31    11    34 2   
    32    12    22 1   
    33    12    48 1   
    34    12    49 1   
    35    12    50 1   
    36    13    22 1   
    37    13    51 1   
    38    13    52 1   
    39    13    53 1   
    40    14    22 1   
    41    14    54 1   
    42    14    55 1   
    43    14    56 1   
    44    15    21 1   
    45    15    57 1   
    46    15    58 1   
    47    15    59 1   
    48    16    27 1   
    49    16    32 2   
    50    17    19 1   
    51    17    36 1   
    52    17    37 1   
    53    18    36 1   
    54    18    60 1   
    55    18    61 1   
    56    19    29 1   
    57    19    62 1   
    58    19    63 1   
    59    20    22 1   
    60    20    30 1   
    61    20    64 1   
    62    21    24 1   
    63    21    25 1   
    64    21    31 1   
    65    23    26 1   
    66    23    65 1   
    67    24    66 1   
    68    24    67 1   
    69    24    68 1   
    70    25    69 1   
    71    25    70 1   
    72    25    71 1   
    73    26    72 1   
    74    26    73 1   
    75    27    29 1   
    76    27    74 1   
    77    28    75 1   
    78    30    76 1   
    79    31    77 1   
@<TRIPOS>SUBSTRUCTURE
     1 OZL         1 TEMP              0 ****  ****    0 ROOT
