@<TRIPOS>MOLECULE
OZM
   33    35     1     0     0
SMALL
bcc


@<TRIPOS>ATOM
      1 C10          2.4220     0.2040    -1.7010 c3         1 OZM       0.018200
      2 C13          5.0490    -0.9200     0.8090 ca         1 OZM      -0.131500
      3 C15          4.8060     1.4610     0.9820 ca         1 OZM      -0.131500
      4 C17          0.3260     1.1970    -0.7060 ca         1 OZM      -0.172000
      5 C02         -4.5610     1.0670     0.3210 c          1 OZM       0.932600
      6 C04         -2.6950    -0.6550     0.6680 cc         1 OZM      -0.025400
      7 C05         -2.6000    -1.9960     0.5650 cd         1 OZM      -0.089900
      8 C07         -0.7420    -1.2750    -0.3010 ca         1 OZM       0.055100
      9 C08          0.5060    -1.2080    -0.8980 ca         1 OZM      -0.138000
     10 C09          1.0460     0.0560    -1.0990 ca         1 OZM      -0.078300
     11 C11          3.4900     0.2340    -0.6340 ca         1 OZM      -0.061300
     12 C12          4.0980    -0.9410    -0.2030 ca         1 OZM      -0.121500
     13 C14          5.4050     0.2820     1.4070 ca         1 OZM      -0.140000
     14 C16          3.8580     1.4350    -0.0320 ca         1 OZM      -0.121500
     15 C18         -0.9230     1.1100    -0.1170 ca         1 OZM      -0.034000
     16 C19         -1.4690    -0.1540     0.0990 ca         1 OZM      -0.079800
     17 O01         -5.5070     1.6960     0.8370 o          1 OZM      -0.832300
     18 O06         -1.4340    -2.4000    -0.0230 os         1 OZM      -0.199200
     19 O20         -4.1830     1.1170    -0.8620 o          1 OZM      -0.832300
     20 H102         2.6130    -0.6230    -2.3880 hc         1 OZM       0.046700
     21 H101         2.4670     1.1210    -2.2920 hc         1 OZM       0.046700
     22 H131         5.5150    -1.8440     1.1290 ha         1 OZM       0.122000
     23 H151         5.0790     2.4040     1.4380 ha         1 OZM       0.122000
     24 H171         0.7590     2.1740    -0.8840 ha         1 OZM       0.114000
     25 H031        -3.3770     0.7570     2.0900 hc         1 OZM       0.033200
     26 H032        -4.5020    -0.5320     1.7760 hc         1 OZM       0.033200
     27 H051        -3.2740    -2.7850     0.8620 h4         1 OZM       0.172000
     28 H081         1.0380    -2.1020    -1.1980 ha         1 OZM       0.126000
     29 H121         3.8290    -1.8850    -0.6640 ha         1 OZM       0.129000
     30 H141         6.1470     0.3010     2.1950 ha         1 OZM       0.120000
     31 H161         3.4020     2.3620    -0.3610 ha         1 OZM       0.129000
     32 H181        -1.4610     2.0060     0.1620 ha         1 OZM       0.155000
     33 C03         -3.7890     0.1370     1.2870 c3         1 OZM      -0.169200
@<TRIPOS>BOND
     1     1    10 1   
     2     1    11 1   
     3     1    20 1   
     4     1    21 1   
     5     2    12 ar  
     6     2    13 ar  
     7     2    22 1   
     8     3    13 ar  
     9     3    14 ar  
    10     3    23 1   
    11     4    10 ar  
    12     4    15 ar  
    13     4    24 1   
    14     5    17 1   
    15     5    19 1   
    16     5    33 1   
    17     6     7 2   
    18     6    16 1   
    19     6    33 1   
    20     7    18 1   
    21     7    27 1   
    22     8     9 ar  
    23     8    16 ar  
    24     8    18 1   
    25     9    10 ar  
    26     9    28 1   
    27    11    12 ar  
    28    11    14 ar  
    29    12    29 1   
    30    13    30 1   
    31    14    31 1   
    32    15    16 ar  
    33    15    32 1   
    34    25    33 1   
    35    26    33 1   
@<TRIPOS>SUBSTRUCTURE
     1 OZM         1 TEMP              0 ****  ****    0 ROOT
