@<TRIPOS>MOLECULE
OZM
   33    35     1     0     0
SMALL
No Charge or Current Charge


@<TRIPOS>ATOM
      1 C10          2.4150     0.2070    -1.6780 c3         1 OZM       0.018200
      2 C13          5.1490    -1.0290     0.7160 ca         1 OZM      -0.113500
      3 C15          4.9680     1.3870     0.9330 ca         1 OZM      -0.113500
      4 C17          0.3140     1.2600    -0.6840 ca         1 OZM      -0.154000
      5 C02         -4.7550     0.8880     0.1840 c          1 OZM       0.722000
      6 C04         -2.7420    -0.5210     0.7610 cc         1 OZM      -0.025400
      7 C05         -2.6820    -1.9100     0.7270 cd         1 OZM      -0.139900
      8 C07         -0.7770    -1.2330    -0.1760 ca         1 OZM       0.055100
      9 C08          0.4850    -1.1840    -0.7750 ca         1 OZM      -0.120000
     10 C09          1.0400     0.0910    -1.0340 ca         1 OZM      -0.078300
     11 C11          3.5240     0.1960    -0.6340 ca         1 OZM      -0.061300
     12 C12          4.1290    -1.0180    -0.2520 ca         1 OZM      -0.103500
     13 C14          5.5700     0.1740     1.3070 ca         1 OZM      -0.122000
     14 C16          3.9480     1.3980    -0.0350 ca         1 OZM      -0.103500
     15 C18         -0.9610     1.1720    -0.0790 ca         1 OZM      -0.016000
     16 C19         -1.4830    -0.1050     0.1640 ca         1 OZM      -0.079800
     17 O01         -5.6910     0.1880    -0.1750 o          1 OZM      -0.727000
     18 O06         -1.5010    -2.3310     0.1640 os         1 OZM      -0.199200
     19 O20         -4.4390     1.9290    -0.3730 o          1 OZM      -0.727000
     20 H102         2.5630    -0.6120    -2.3920 hc         1 OZM       0.046700
     21 H101         2.4730     1.1260    -2.2750 hc         1 OZM       0.046700
     22 H131         5.6130    -1.9690     1.0060 ha         1 OZM       0.104000
     23 H151         5.2920     2.3190     1.3920 ha         1 OZM       0.104000
     24 H171         0.7400     2.2410    -0.8790 ha         1 OZM       0.096000
     25 H031        -3.3470     1.1930     1.8080 hc         1 OZM       0.033200
     26 H032        -4.4240    -0.2730     1.9840 hc         1 OZM       0.033200
     27 H051        -3.3880    -2.6630     1.0630 h4         1 OZM       0.222000
     28 H081         1.0170    -2.0970    -1.0280 ha         1 OZM       0.108000
     29 H121         3.8070    -1.9540    -0.7030 ha         1 OZM       0.111000
     30 H141         6.3590     0.1660     2.0560 ha         1 OZM       0.102000
     31 H161         3.4860     2.3410    -0.3170 ha         1 OZM       0.111000
     32 H181        -1.5190     2.0670     0.1880 ha         1 OZM       0.137000
     33 C03         -3.8420     0.3560     1.3010 c3         1 OZM      -0.169200
@<TRIPOS>BOND
     1     1    10 1   
     2     1    11 1   
     3     1    20 1   
     4     1    21 1   
     5     2    12 ar  
     6     2    13 ar  
     7     2    22 1   
     8     3    13 ar  
     9     3    14 ar  
    10     3    23 1   
    11     4    10 ar  
    12     4    15 ar  
    13     4    24 1   
    14     5    17 1   
    15     5    19 1   
    16     5    33 1   
    17     6     7 2   
    18     6    16 1   
    19     6    33 1   
    20     7    18 1   
    21     7    27 1   
    22     8     9 ar  
    23     8    16 ar  
    24     8    18 1   
    25     9    10 ar  
    26     9    28 1   
    27    11    12 ar  
    28    11    14 ar  
    29    12    29 1   
    30    13    30 1   
    31    14    31 1   
    32    15    16 ar  
    33    15    32 1   
    34    25    33 1   
    35    26    33 1   
@<TRIPOS>SUBSTRUCTURE
     1 OZM         1 TEMP              0 ****  ****    0 ROOT
