@<TRIPOS>MOLECULE
OZP
   69    72     1     0     0
SMALL
abcg2


@<TRIPOS>ATOM
      1 C1          -5.7670    -0.8010     1.4390 ca         1 OZP      -0.083600
      2 C2          -5.5700     0.2180     0.5200 ca         1 OZP       0.122500
      3 C4          -7.6450     0.9110     0.6950 ca         1 OZP       0.167900
      4 C6          -7.0570    -0.8980     1.9930 ca         1 OZP       0.444900
      5 C8          -3.7530    -0.9550     0.8240 cc         1 OZP       0.457700
      6 C10         -3.6230     0.9030    -0.8860 c5         1 OZP       0.325300
      7 C12         -1.6780     0.2070    -1.9590 c5         1 OZP       0.167300
      8 C13         -2.6730     0.6370    -3.0320 c5         1 OZP       0.086300
      9 C14         -4.0100     0.4540    -2.3020 c5         1 OZP       0.090300
     10 C15         -0.2710     0.7200    -2.1920 c3         1 OZP       0.186800
     11 C18          0.6170    -0.2190    -0.1080 c3         1 OZP       0.160800
     12 C19          0.7990     1.0310     0.7510 c3         1 OZP      -0.089400
     13 C20          0.5530     0.7600     2.2360 c3         1 OZP       0.017500
     14 N21         -0.7760     0.1950     2.4280 n8         1 OZP      -1.011200
     15 C24          2.0750     0.4290    -1.9660 c3         1 OZP       0.182800
     16 C25          3.2490    -0.3670    -1.4140 c3         1 OZP      -0.078400
     17 C26          4.5570     0.0470    -2.0920 c3         1 OZP      -0.033100
     18 C27          5.7430    -0.6500    -1.4900 ca         1 OZP      -0.078300
     19 C28          6.4820    -0.0500    -0.4770 ca         1 OZP      -0.047000
     20 C29          7.5620    -0.6980     0.1160 ca         1 OZP      -0.149600
     21 C30          7.8930    -1.9870    -0.2960 ca         1 OZP      -0.096000
     22 C31          7.1580    -2.6010    -1.3000 ca         1 OZP      -0.126000
     23 C32          6.0960    -1.9370    -1.8950 ca         1 OZP      -0.090000
     24 C33          8.3020     0.0220     1.2000 c          1 OZP       0.610700
     25 C36          0.8680     2.0180     3.0860 c          1 OZP       0.693000
     26 N16          0.7700    -0.0560    -1.5460 n3         1 OZP      -0.737600
     27 N17         -7.3920    -1.8350     2.8810 nv         1 OZP      -1.071900
     28 N3          -6.4770     1.1020     0.1070 nb         1 OZP      -0.226000
     29 N34          9.5460    -0.4060     1.4610 nt         1 OZP      -0.612000
     30 N5          -7.9780    -0.0140     1.5920 nb         1 OZP      -0.315000
     31 N7          -4.6150    -1.5220     1.6180 nd         1 OZP      -0.571100
     32 N9          -4.2670     0.1120     0.1430 na         1 OZP      -0.278300
     33 O11         -2.2370     0.7660    -0.7700 os         1 OZP      -0.428000
     34 O22         -2.5430    -0.1550    -4.1770 oh         1 OZP      -0.704000
     35 O23         -4.3890    -0.8930    -2.2740 oh         1 OZP      -0.696000
     36 O35          7.7840     0.9520     1.8060 o          1 OZP      -0.583100
     37 O37         -0.0090     2.4150     3.8790 o          1 OZP      -0.733500
     38 O38          1.9990     2.5210     2.9220 o          1 OZP      -0.733500
     39 H1          -8.4400     1.5930     0.4140 h5         1 OZP       0.033100
     40 H2          -2.7210    -1.2520     0.7220 h5         1 OZP       0.095800
     41 H3          -3.9110     1.9450    -0.7220 h2         1 OZP       0.100700
     42 H4          -1.6580    -0.8900    -1.8980 h1         1 OZP       0.084700
     43 H5          -2.5240     1.7020    -3.2520 h1         1 OZP       0.052700
     44 H6          -4.8030     1.0910    -2.7090 h1         1 OZP       0.062700
     45 H7          -0.0870     0.6630    -3.2700 h1         1 OZP       0.035700
     46 H8          -0.2430     1.7930    -1.9370 h1         1 OZP       0.035700
     47 H9           1.3280    -0.9810     0.2270 h1         1 OZP       0.052200
     48 H10         -0.3630    -0.6540     0.0840 h1         1 OZP       0.052200
     49 H11          1.8120     1.4190     0.6330 hc         1 OZP       0.043200
     50 H12          0.1230     1.8250     0.4130 hc         1 OZP       0.043200
     51 H13          1.2820    -0.0030     2.5480 h1         1 OZP       0.040700
     52 H14         -1.0190     0.2770     3.4080 hn         1 OZP       0.386500
     53 H15         -1.4510     0.7770     1.9460 hn         1 OZP       0.386500
     54 H17          2.2240     1.4930    -1.7150 h1         1 OZP       0.020700
     55 H18          2.1050     0.3770    -3.0600 h1         1 OZP       0.020700
     56 H19          3.3510    -0.2110    -0.3370 hc         1 OZP       0.060700
     57 H20          3.0790    -1.4370    -1.5650 hc         1 OZP       0.060700
     58 H21          4.4960    -0.1750    -3.1600 hc         1 OZP       0.044200
     59 H22          4.6820     1.1300    -2.0030 hc         1 OZP       0.044200
     60 H23          6.2180     0.9490    -0.1510 ha         1 OZP       0.147000
     61 H24          8.7040    -2.5350     0.1670 ha         1 OZP       0.101000
     62 H25          7.4140    -3.6040    -1.6150 ha         1 OZP       0.107000
     63 H26          5.5300    -2.4240    -2.6800 ha         1 OZP       0.111000
     64 H28         -6.7050    -2.4700     3.2470 hn         1 OZP       0.501000
     65 H29         -8.3060    -1.8330     3.3000 hn         1 OZP       0.501000
     66 H30         10.0190    -1.0870     0.8930 hn         1 OZP       0.308000
     67 H31         10.0920     0.0520     2.1730 hn         1 OZP       0.308000
     68 H32         -2.9080     0.3220    -4.9290 ho         1 OZP       0.505000
     69 H33         -4.2410    -1.2540    -3.1560 ho         1 OZP       0.515000
@<TRIPOS>BOND
     1     1     2 ar  
     2     1     4 ar  
     3     1    31 1   
     4     2    28 ar  
     5     2    32 1   
     6     3    28 ar  
     7     3    30 ar  
     8     3    39 1   
     9     4    27 1   
    10     4    30 ar  
    11     5    31 2   
    12     5    32 1   
    13     5    40 1   
    14     6     9 1   
    15     6    32 1   
    16     6    33 1   
    17     6    41 1   
    18     7     8 1   
    19     7    10 1   
    20     7    33 1   
    21     7    42 1   
    22     8     9 1   
    23     8    34 1   
    24     8    43 1   
    25     9    35 1   
    26     9    44 1   
    27    10    26 1   
    28    10    45 1   
    29    10    46 1   
    30    11    12 1   
    31    11    26 1   
    32    11    47 1   
    33    11    48 1   
    34    12    13 1   
    35    12    49 1   
    36    12    50 1   
    37    13    14 1   
    38    13    25 1   
    39    13    51 1   
    40    14    52 1   
    41    14    53 1   
    42    15    16 1   
    43    15    26 1   
    44    15    54 1   
    45    15    55 1   
    46    16    17 1   
    47    16    56 1   
    48    16    57 1   
    49    17    18 1   
    50    17    58 1   
    51    17    59 1   
    52    18    19 ar  
    53    18    23 ar  
    54    19    20 ar  
    55    19    60 1   
    56    20    21 ar  
    57    20    24 1   
    58    21    22 ar  
    59    21    61 1   
    60    22    23 ar  
    61    22    62 1   
    62    23    63 1   
    63    24    29 1   
    64    24    36 2   
    65    25    37 1   
    66    25    38 1   
    67    27    64 1   
    68    27    65 1   
    69    29    66 1   
    70    29    67 1   
    71    34    68 1   
    72    35    69 1   
@<TRIPOS>SUBSTRUCTURE
     1 OZP         1 TEMP              0 ****  ****    0 ROOT
