@<TRIPOS>MOLECULE
OZP
   69    72     1     0     0
SMALL
No Charge or Current Charge


@<TRIPOS>ATOM
      1 C1          -5.7390    -1.0800     1.4060 ca         1 OZP      -0.083600
      2 C2          -5.3440     0.0440     0.7250 ca         1 OZP       0.122500
      3 C4          -6.5840     1.3390     2.1480 ca         1 OZP       0.167900
      4 C6          -6.6050    -0.9210     2.5080 ca         1 OZP       0.444900
      5 C8          -4.4460    -1.7910    -0.1640 cc         1 OZP       0.457700
      6 C10         -3.9010     0.4180    -1.3160 c5         1 OZP       0.325300
      7 C12         -1.7850     0.0980    -2.2950 c5         1 OZP       0.167300
      8 C13         -2.7660     0.5660    -3.4150 c5         1 OZP       0.086300
      9 C14         -4.0980     0.0180    -2.8320 c5         1 OZP       0.090300
     10 C15         -0.3630     0.7310    -2.3730 c3         1 OZP       0.186800
     11 C18          0.4710    -0.0040    -0.1100 c3         1 OZP       0.160800
     12 C19          0.4340     1.3600     0.6310 c3         1 OZP      -0.089400
     13 C20          0.4080     1.2420     2.1780 c3         1 OZP       0.017500
     14 N21         -0.8140     0.4880     2.6400 n8         1 OZP      -1.011200
     15 C24          2.0680     0.5650    -1.9700 c3         1 OZP       0.182800
     16 C25          3.2610    -0.2230    -1.3810 c3         1 OZP      -0.078400
     17 C26          4.6180     0.2170    -1.9690 c3         1 OZP      -0.033100
     18 C27          5.7810    -0.5690    -1.3760 ca         1 OZP      -0.078300
     19 C28          6.4940    -0.0620    -0.2720 ca         1 OZP      -0.047000
     20 C29          7.5720    -0.7810     0.2920 ca         1 OZP      -0.149600
     21 C30          7.9240    -2.0300    -0.2750 ca         1 OZP      -0.096000
     22 C31          7.2120    -2.5380    -1.3740 ca         1 OZP      -0.126000
     23 C32          6.1440    -1.8120    -1.9230 ca         1 OZP      -0.090000
     24 C33          8.3150    -0.2010     1.4770 c          1 OZP       0.610700
     25 C36          0.6420     2.6640     2.8410 c          1 OZP       0.693000
     26 N16          0.7210     0.0630    -1.5840 n3         1 OZP      -0.737600
     27 N17         -7.0530    -1.9680     3.2520 nv         1 OZP      -1.071900
     28 N3          -5.7570     1.2790     1.0760 nb         1 OZP      -0.226000
     29 N34          9.3390    -0.9110     2.0000 nt         1 OZP      -0.612000
     30 N5          -7.0310     0.2950     2.8870 nb         1 OZP      -0.315000
     31 N7          -5.1850    -2.2470     0.8690 nd         1 OZP      -0.571100
     32 N9          -4.5260    -0.3990    -0.2740 na         1 OZP      -0.278300
     33 O11         -2.4740     0.4860    -1.0820 os         1 OZP      -0.428000
     34 O22         -2.4910    -0.0030    -4.7090 oh         1 OZP      -0.704000
     35 O23         -4.1790    -1.3920    -3.1080 oh         1 OZP      -0.696000
     36 O35          8.0270     0.8750     1.9740 o          1 OZP      -0.583100
     37 O37         -0.2980     3.4460     2.8930 o          1 OZP      -0.733500
     38 O38          1.7190     2.8800     3.3820 o          1 OZP      -0.733500
     39 H1          -6.9250     2.3290     2.4450 h5         1 OZP       0.033100
     40 H2          -3.8400    -2.3970    -0.8280 h5         1 OZP       0.095800
     41 H3          -4.3110     1.4260    -1.1790 h2         1 OZP       0.100700
     42 H4          -1.6760    -0.9950    -2.3090 h1         1 OZP       0.084700
     43 H5          -2.7830     1.6650    -3.4690 h1         1 OZP       0.052700
     44 H6          -4.9650     0.5390    -3.2610 h1         1 OZP       0.062700
     45 H7          -0.0770     0.7140    -3.4330 h1         1 OZP       0.035700
     46 H8          -0.4390     1.7910    -2.0940 h1         1 OZP       0.035700
     47 H9           1.2390    -0.6270     0.3650 h1         1 OZP       0.052200
     48 H10         -0.4750    -0.5270     0.0810 h1         1 OZP       0.052200
     49 H11          1.3230     1.9390     0.3600 hc         1 OZP       0.043200
     50 H12         -0.4330     1.9410     0.2940 hc         1 OZP       0.043200
     51 H13          1.2750     0.6310     2.4660 h1         1 OZP       0.040700
     52 H14         -0.7980     0.4220     3.6650 hn         1 OZP       0.386500
     53 H15         -1.6380     1.0720     2.4580 hn         1 OZP       0.386500
     54 H17          2.1730     1.6230    -1.6970 h1         1 OZP       0.020700
     55 H18          2.1590     0.5170    -3.0640 h1         1 OZP       0.020700
     56 H19          3.2930    -0.0880    -0.2940 hc         1 OZP       0.060700
     57 H20          3.1140    -1.2920    -1.5740 hc         1 OZP       0.060700
     58 H21          4.5980     0.0880    -3.0590 hc         1 OZP       0.044200
     59 H22          4.7570     1.2910    -1.7920 hc         1 OZP       0.044200
     60 H23          6.2040     0.8990     0.1490 ha         1 OZP       0.147000
     61 H24          8.7450    -2.6190     0.1250 ha         1 OZP       0.101000
     62 H25          7.4890    -3.4990    -1.8020 ha         1 OZP       0.107000
     63 H26          5.5980    -2.2160    -2.7740 ha         1 OZP       0.111000
     64 H28         -6.5730    -2.8560     3.1220 hn         1 OZP       0.501000
     65 H29         -7.4150    -1.7770     4.1820 hn         1 OZP       0.501000
     66 H30          9.5910    -1.8030     1.6030 hn         1 OZP       0.308000
     67 H31          9.8430    -0.5380     2.7900 hn         1 OZP       0.308000
     68 H32         -2.7270     0.6740    -5.3890 ho         1 OZP       0.505000
     69 H33         -3.6370    -1.4960    -3.9300 ho         1 OZP       0.515000
@<TRIPOS>BOND
     1     1     2 ar  
     2     1     4 ar  
     3     1    31 1   
     4     2    28 ar  
     5     2    32 1   
     6     3    28 ar  
     7     3    30 ar  
     8     3    39 1   
     9     4    27 1   
    10     4    30 ar  
    11     5    31 2   
    12     5    32 1   
    13     5    40 1   
    14     6     9 1   
    15     6    32 1   
    16     6    33 1   
    17     6    41 1   
    18     7     8 1   
    19     7    10 1   
    20     7    33 1   
    21     7    42 1   
    22     8     9 1   
    23     8    34 1   
    24     8    43 1   
    25     9    35 1   
    26     9    44 1   
    27    10    26 1   
    28    10    45 1   
    29    10    46 1   
    30    11    12 1   
    31    11    26 1   
    32    11    47 1   
    33    11    48 1   
    34    12    13 1   
    35    12    49 1   
    36    12    50 1   
    37    13    14 1   
    38    13    25 1   
    39    13    51 1   
    40    14    52 1   
    41    14    53 1   
    42    15    16 1   
    43    15    26 1   
    44    15    54 1   
    45    15    55 1   
    46    16    17 1   
    47    16    56 1   
    48    16    57 1   
    49    17    18 1   
    50    17    58 1   
    51    17    59 1   
    52    18    19 ar  
    53    18    23 ar  
    54    19    20 ar  
    55    19    60 1   
    56    20    21 ar  
    57    20    24 1   
    58    21    22 ar  
    59    21    61 1   
    60    22    23 ar  
    61    22    62 1   
    62    23    63 1   
    63    24    29 1   
    64    24    36 2   
    65    25    37 1   
    66    25    38 1   
    67    27    64 1   
    68    27    65 1   
    69    29    66 1   
    70    29    67 1   
    71    34    68 1   
    72    35    69 1   
@<TRIPOS>SUBSTRUCTURE
     1 OZP         1 TEMP              0 ****  ****    0 ROOT
