@<TRIPOS>MOLECULE
OZQ
   51    53     1     0     0
SMALL
No Charge or Current Charge


@<TRIPOS>ATOM
      1 C1         -27.0210   -17.0470    20.1880 ca         1 OZQ       0.260000
      2 C2         -25.8610   -16.2140    20.1840 ca         1 OZQ      -0.056300
      3 C3         -24.6000   -16.7880    19.9190 ca         1 OZQ      -0.114000
      4 C11        -25.1650   -13.8270    19.4700 c3         1 OZQ      -0.086600
      5 C12        -27.9410   -12.6650    17.4290 ca         1 OZQ      -0.145000
      6 C13        -27.2200   -13.2070    16.3450 ca         1 OZQ      -0.002500
      7 C14        -27.1920   -14.6030    16.1910 ca         1 OZQ      -0.142000
      8 C15        -27.8630   -15.4380    17.0950 ca         1 OZQ      -0.014000
      9 C16        -28.5900   -14.8990    18.1780 ca         1 OZQ      -0.319500
     10 C17        -28.6230   -13.4870    18.3510 ca         1 OZQ       0.019700
     11 C21        -29.3620   -12.7950    19.4950 c3         1 OZQ      -0.062800
     12 C22        -26.5020   -12.3520    15.3900 cc         1 OZQ       0.068500
     13 C23        -26.2630   -11.0110    15.5220 cd         1 OZQ      -0.083000
     14 C24        -25.5280   -10.6280    14.3740 cd         1 OZQ      -0.209600
     15 C25        -25.3590   -11.7560    13.6090 cc         1 OZQ       0.154900
     16 C27        -25.0090    -9.2930    14.0050 c          1 OZQ       0.737600
     17 C4         -24.4750   -18.1540    19.6480 ca         1 OZQ      -0.104000
     18 C5         -25.6030   -18.9800    19.6840 ca         1 OZQ      -0.114000
     19 C6         -26.8760   -18.4530    19.9850 ca         1 OZQ      -0.056300
     20 N7         -28.2830   -16.4900    20.4360 nu         1 OZQ      -0.921100
     21 C8         -28.0510   -19.4410    20.1090 c3         1 OZQ      -0.028600
     22 C9         -27.7690   -20.6350    21.0480 c3         1 OZQ      -0.086600
     23 C10        -25.9130   -14.7070    20.4950 c3         1 OZQ      -0.028600
     24 S18        -29.4250   -16.0830    19.2670 sy         1 OZQ       1.163600
     25 O19        -29.6650   -17.3320    18.5410 o          1 OZQ      -0.549000
     26 O20        -30.4730   -15.4380    20.0560 o          1 OZQ      -0.549000
     27 O26        -25.9530   -12.8360    14.2280 os         1 OZQ      -0.270000
     28 O28        -24.3910    -9.1730    12.9580 o          1 OZQ      -0.719000
     29 O29        -25.2210    -8.3610    14.7670 o          1 OZQ      -0.719000
     30 H1         -23.7030   -16.1750    19.9230 ha         1 OZQ       0.113500
     31 H2         -25.3900   -12.7680    19.6420 hc         1 OZQ       0.037367
     32 H3         -24.0800   -13.9550    19.5490 hc         1 OZQ       0.037367
     33 H4         -25.4690   -14.0800    18.4490 hc         1 OZQ       0.037367
     34 H7         -27.8100   -16.5160    16.9470 ha         1 OZQ       0.135000
     35 H8         -30.4480   -12.8770    19.3700 hc         1 OZQ       0.050033
     36 H9         -29.0920   -13.2170    20.4690 hc         1 OZQ       0.050033
     37 H10        -29.1270   -11.7260    19.5440 hc         1 OZQ       0.050033
     38 H11        -26.5620   -10.3640    16.3390 ha         1 OZQ       0.143000
     39 H12        -24.8640   -11.9250    12.6620 h4         1 OZQ       0.053100
     40 H13        -23.4970   -18.5780    19.4320 ha         1 OZQ       0.110000
     41 H14        -25.4770   -20.0420    19.4890 ha         1 OZQ       0.113500
     42 H15        -28.2570   -15.6470    20.9890 hn         1 OZQ       0.492000
     43 H16        -28.9510   -18.9520    20.4960 hc         1 OZQ       0.048200
     44 H17        -28.3150   -19.8260    19.1170 hc         1 OZQ       0.048200
     45 H18        -28.6760   -21.2370    21.1760 hc         1 OZQ       0.037367
     46 H19        -26.9880   -21.2890    20.6450 hc         1 OZQ       0.037367
     47 H20        -27.4520   -20.2810    22.0360 hc         1 OZQ       0.037367
     48 H21        -25.4770   -14.5280    21.4860 hc         1 OZQ       0.048200
     49 H22        -26.9370   -14.3320    20.5570 hc         1 OZQ       0.048200
     50 H5         -27.9790   -11.5890    17.5620 ha         1 OZQ       0.122000
     51 H6         -26.6400   -15.0510    15.3680 ha         1 OZQ       0.131000
@<TRIPOS>BOND
     1     1     2 ar  
     2     1    19 ar  
     3     1    20 1   
     4     2     3 ar  
     5     2    23 1   
     6     3    17 ar  
     7     3    30 1   
     8     4    23 1   
     9     4    31 1   
    10     4    32 1   
    11     4    33 1   
    12     5     6 ar  
    13     5    10 ar  
    14     5    50 1   
    15     6     7 ar  
    16     6    12 1   
    17     7     8 ar  
    18     7    51 1   
    19     8     9 ar  
    20     8    34 1   
    21     9    10 ar  
    22     9    24 1   
    23    10    11 1   
    24    11    35 1   
    25    11    36 1   
    26    11    37 1   
    27    12    13 2   
    28    12    27 1   
    29    13    14 1   
    30    13    38 1   
    31    14    15 2   
    32    14    16 1   
    33    15    27 1   
    34    15    39 1   
    35    16    28 1   
    36    16    29 1   
    37    17    18 ar  
    38    17    40 1   
    39    18    19 ar  
    40    18    41 1   
    41    19    21 1   
    42    20    24 1   
    43    20    42 1   
    44    21    22 1   
    45    21    43 1   
    46    21    44 1   
    47    22    45 1   
    48    22    46 1   
    49    22    47 1   
    50    23    48 1   
    51    23    49 1   
    52    24    25 2   
    53    24    26 2   
@<TRIPOS>SUBSTRUCTURE
     1 OZQ         1 TEMP              0 ****  ****    0 ROOT
