@<TRIPOS>MOLECULE
OZQ
   51    53     1     0     0
SMALL
abcg2


@<TRIPOS>ATOM
      1 C1         -26.9040   -17.2750    20.0420 ca         1 OZQ       0.260000
      2 C2         -25.7300   -16.5090    20.0020 ca         1 OZQ      -0.056300
      3 C3         -24.5140   -17.1760    19.8680 ca         1 OZQ      -0.114000
      4 C11        -24.9470   -14.2650    19.0870 c3         1 OZQ      -0.086600
      5 C12        -27.8790   -12.7020    17.4790 ca         1 OZQ      -0.145000
      6 C13        -27.2050   -13.0470    16.3050 ca         1 OZQ      -0.002500
      7 C14        -27.1260   -14.3950    15.9570 ca         1 OZQ      -0.142000
      8 C15        -27.7050   -15.3510    16.7690 ca         1 OZQ      -0.014000
      9 C16        -28.3750   -14.9870    17.9320 ca         1 OZQ      -0.319500
     10 C17        -28.4750   -13.6390    18.3110 ca         1 OZQ       0.019700
     11 C21        -29.1860   -13.1430    19.5380 c3         1 OZQ      -0.062800
     12 C22        -26.5980   -12.0120    15.4930 cc         1 OZQ       0.068500
     13 C23        -26.4910   -10.6630    15.6380 cd         1 OZQ      -0.083000
     14 C24        -25.7640   -10.1810    14.5120 cd         1 OZQ      -0.209600
     15 C25        -25.4880   -11.2830    13.7660 cc         1 OZQ       0.154900
     16 C27        -25.3850    -8.7540    14.2100 c          1 OZQ       0.737600
     17 C4         -24.4590   -18.5550    19.7710 ca         1 OZQ      -0.104000
     18 C5         -25.6250   -19.2990    19.8560 ca         1 OZQ      -0.114000
     19 C6         -26.8590   -18.6780    20.0150 ca         1 OZQ      -0.056300
     20 N7         -28.1800   -16.6560    20.1800 nu         1 OZQ      -0.921100
     21 C8         -28.0660   -19.5340    20.2870 c3         1 OZQ      -0.028600
     22 C9         -28.2980   -19.6860    21.7900 c3         1 OZQ      -0.086600
     23 C10        -25.7140   -15.0100    20.1740 c3         1 OZQ      -0.028600
     24 S18        -29.1200   -16.3090    18.8610 sy         1 OZQ       1.163600
     25 O19        -29.0800   -17.4770    17.9980 o          1 OZQ      -0.549000
     26 O20        -30.3940   -15.8570    19.3920 o          1 OZQ      -0.549000
     27 O26        -25.9850   -12.3890    14.3450 os         1 OZQ      -0.270000
     28 O28        -24.7270    -8.5680    13.1690 o          1 OZQ      -0.719000
     29 O29        -25.7720    -7.9040    15.0340 o          1 OZQ      -0.719000
     30 H1         -23.5940   -16.6050    19.8440 ha         1 OZQ       0.113500
     31 H2         -24.9960   -13.1900    19.2590 hc         1 OZQ       0.037367
     32 H3         -23.8930   -14.5440    19.0640 hc         1 OZQ       0.037367
     33 H4         -25.3680   -14.4650    18.1020 hc         1 OZQ       0.037367
     34 H7         -27.6320   -16.3900    16.4830 ha         1 OZQ       0.135000
     35 H8         -30.2640   -13.2640    19.4500 hc         1 OZQ       0.050033
     36 H9         -28.8770   -13.6600    20.4470 hc         1 OZQ       0.050033
     37 H10        -28.9780   -12.0850    19.6830 hc         1 OZQ       0.050033
     38 H11        -26.8760   -10.0690    16.4520 ha         1 OZQ       0.143000
     39 H12        -24.9650   -11.4220    12.8330 h4         1 OZQ       0.053100
     40 H13        -23.5050   -19.0520    19.6550 ha         1 OZQ       0.110000
     41 H14        -25.5790   -20.3810    19.8220 ha         1 OZQ       0.113500
     42 H15        -28.3130   -16.0180    20.9560 hn         1 OZQ       0.492000
     43 H16        -28.9610   -19.1310    19.8210 hc         1 OZQ       0.048200
     44 H17        -27.9050   -20.5200    19.8460 hc         1 OZQ       0.048200
     45 H18        -29.1630   -20.3210    21.9850 hc         1 OZQ       0.037367
     46 H19        -27.4340   -20.1360    22.2790 hc         1 OZQ       0.037367
     47 H20        -28.4810   -18.7190    22.2590 hc         1 OZQ       0.037367
     48 H21        -25.2640   -14.7880    21.1460 hc         1 OZQ       0.048200
     49 H22        -26.7250   -14.6120    20.2230 hc         1 OZQ       0.048200
     50 H5         -27.9480   -11.6590    17.7620 ha         1 OZQ       0.122000
     51 H6         -26.6130   -14.7130    15.0600 ha         1 OZQ       0.131000
@<TRIPOS>BOND
     1     1     2 ar  
     2     1    19 ar  
     3     1    20 1   
     4     2     3 ar  
     5     2    23 1   
     6     3    17 ar  
     7     3    30 1   
     8     4    23 1   
     9     4    31 1   
    10     4    32 1   
    11     4    33 1   
    12     5     6 ar  
    13     5    10 ar  
    14     5    50 1   
    15     6     7 ar  
    16     6    12 1   
    17     7     8 ar  
    18     7    51 1   
    19     8     9 ar  
    20     8    34 1   
    21     9    10 ar  
    22     9    24 1   
    23    10    11 1   
    24    11    35 1   
    25    11    36 1   
    26    11    37 1   
    27    12    13 2   
    28    12    27 1   
    29    13    14 1   
    30    13    38 1   
    31    14    15 2   
    32    14    16 1   
    33    15    27 1   
    34    15    39 1   
    35    16    28 1   
    36    16    29 1   
    37    17    18 ar  
    38    17    40 1   
    39    18    19 ar  
    40    18    41 1   
    41    19    21 1   
    42    20    24 1   
    43    20    42 1   
    44    21    22 1   
    45    21    43 1   
    46    21    44 1   
    47    22    45 1   
    48    22    46 1   
    49    22    47 1   
    50    23    48 1   
    51    23    49 1   
    52    24    25 2   
    53    24    26 2   
@<TRIPOS>SUBSTRUCTURE
     1 OZQ         1 TEMP              0 ****  ****    0 ROOT
