@<TRIPOS>MOLECULE
OZR
   40    41     1     0     0
SMALL
No Charge or Current Charge


@<TRIPOS>ATOM
      1 C1          -5.1570     0.4180    -0.5760 c5         1 OZR       0.155300
      2 C2          -5.7810    -0.9200    -0.0850 c5         1 OZR       0.092300
      3 C3          -5.1510    -1.8990    -1.1160 c5         1 OZR       0.122600
      4 O4          -3.7720    -1.4830    -1.1940 os         1 OZR      -0.440000
      5 C5          -3.7090    -0.0500    -0.9790 c5         1 OZR       0.196500
      6 C6          -2.7600     0.1530     0.1960 c2         1 OZR      -0.243200
      7 O7          -5.9290     0.9010    -1.6820 oh         1 OZR      -0.712000
      8 O8          -7.2200    -0.8730    -0.1410 oh         1 OZR      -0.717000
      9 C9          -2.1760     1.3500     0.3840 c2         1 OZR      -0.224200
     10 C10         -1.2110     1.6820     1.4980 c3         1 OZR       0.133200
     11 N11          0.1040     1.1240     1.1920 ns         1 OZR      -0.501900
     12 C12          1.0820     1.7680     0.4620 c          1 OZR       0.623700
     13 C13          2.3740     1.0010     0.2790 ca         1 OZR      -0.191600
     14 C14          3.2280     1.2430    -0.8220 ca         1 OZR       0.216100
     15 C15          4.4320     0.5250    -0.9740 ca         1 OZR       0.026100
     16 C16          4.8030    -0.4420    -0.0270 ca         1 OZR      -0.088000
     17 C17          3.9700    -0.7020     1.0850 ca         1 OZR      -0.197200
     18 C18          2.7620     0.0230     1.2290 ca         1 OZR      -0.011000
     19 N19          4.3630    -1.7300     2.1060 no         1 OZR       0.701200
     20 O20          2.9160     2.1410    -1.8000 oh         1 OZR      -0.493100
     21 O21          5.2380     0.7730    -2.0600 oh         1 OZR      -0.553100
     22 O22          0.9100     2.9070     0.0500 o          1 OZR      -0.565100
     23 O23          5.4380    -2.3260     1.9530 o          1 OZR      -0.400000
     24 O24          3.5950    -1.9380     3.0540 o          1 OZR      -0.400000
     25 H1          -5.1330     1.1670     0.2290 h1         1 OZR       0.057700
     26 H2          -5.4360    -1.1560     0.9320 h1         1 OZR       0.048700
     27 H3          -5.2050    -2.9490    -0.7970 h1         1 OZR       0.054200
     28 H3A         -5.6110    -1.8060    -2.1100 h1         1 OZR       0.054200
     29 H5          -3.3560     0.4470    -1.8930 h1         1 OZR       0.095700
     30 H6          -2.5510    -0.6730     0.8780 ha         1 OZR       0.171000
     31 HO7         -6.8090     0.4740    -1.5150 ho         1 OZR       0.526000
     32 HO8         -7.5600    -1.6720     0.3320 ho         1 OZR       0.516000
     33 H9          -2.3720     2.1860    -0.2920 ha         1 OZR       0.201000
     34 H10         -1.1330     2.7700     1.6290 h1         1 OZR       0.064700
     35 H10A        -1.5660     1.2540     2.4450 h1         1 OZR       0.064700
     36 HN11         0.2930     0.1700     1.4680 hn         1 OZR       0.315500
     37 H16          5.7360    -0.9900    -0.1560 ha         1 OZR       0.154000
     38 H18          2.1380    -0.1610     2.1020 ha         1 OZR       0.160000
     39 HO20         3.6650     2.1000    -2.4350 ho         1 OZR       0.496000
     40 HO21         6.0320     0.1930    -2.0200 ho         1 OZR       0.490000
@<TRIPOS>BOND
     1     1     2 1   
     2     1     5 1   
     3     1     7 1   
     4     1    25 1   
     5     2     3 1   
     6     2     8 1   
     7     2    26 1   
     8     3     4 1   
     9     3    27 1   
    10     3    28 1   
    11     4     5 1   
    12     5     6 1   
    13     5    29 1   
    14     6     9 2   
    15     6    30 1   
    16     7    31 1   
    17     8    32 1   
    18     9    10 1   
    19     9    33 1   
    20    10    11 1   
    21    10    34 1   
    22    10    35 1   
    23    11    12 1   
    24    11    36 1   
    25    12    13 1   
    26    12    22 2   
    27    13    14 ar  
    28    13    18 ar  
    29    14    15 ar  
    30    14    20 1   
    31    15    16 ar  
    32    15    21 1   
    33    16    17 ar  
    34    16    37 1   
    35    17    18 ar  
    36    17    19 1   
    37    18    38 1   
    38    19    23 1   
    39    19    24 1   
    40    20    39 1   
    41    21    40 1   
@<TRIPOS>SUBSTRUCTURE
     1 OZR         1 TEMP              0 ****  ****    0 ROOT
