@<TRIPOS>MOLECULE
OZR
   40    41     1     0     0
SMALL
abcg2


@<TRIPOS>ATOM
      1 C1          -5.0120    -0.3940     0.0550 c5         1 OZR       0.155300
      2 C2          -4.0880    -1.0020    -0.9980 c5         1 OZR       0.092300
      3 C3          -4.1720     0.0450    -2.1090 c5         1 OZR       0.122600
      4 O4          -4.3510     1.2880    -1.4510 os         1 OZR      -0.440000
      5 C5          -4.6530     1.0850    -0.0800 c5         1 OZR       0.196500
      6 C6          -3.5090     1.4580     0.8160 c2         1 OZR      -0.243200
      7 O7          -6.3650    -0.5580    -0.2860 oh         1 OZR      -0.712000
      8 O8          -4.5240    -2.2850    -1.3530 oh         1 OZR      -0.717000
      9 C9          -2.3070     1.8510     0.4160 c2         1 OZR      -0.224200
     10 C10         -1.2020     2.2140     1.3620 c3         1 OZR       0.133200
     11 N11         -0.0400     1.3620     1.1950 ns         1 OZR      -0.501900
     12 C12          0.9220     1.6070     0.2930 c          1 OZR       0.623700
     13 C13          2.0350     0.6040     0.2880 ca         1 OZR      -0.191600
     14 C14          2.4540     0.0380    -0.9150 ca         1 OZR       0.216100
     15 C15          3.5370    -0.8630    -0.9180 ca         1 OZR       0.026100
     16 C16          4.1850    -1.1780     0.2540 ca         1 OZR      -0.088000
     17 C17          3.7480    -0.6000     1.4430 ca         1 OZR      -0.197200
     18 C18          2.6810     0.2790     1.4740 ca         1 OZR      -0.011000
     19 N19          4.4290    -0.9310     2.6740 no         1 OZR       0.701200
     20 O20          1.8060     0.3310    -2.0390 oh         1 OZR      -0.493100
     21 O21          3.8600    -1.3620    -2.1240 oh         1 OZR      -0.553100
     22 O22          0.9290     2.5750    -0.4490 o          1 OZR      -0.565100
     23 O23          5.3590    -1.7040     2.6220 o          1 OZR      -0.400000
     24 O24          4.0370    -0.4230     3.7000 o          1 OZR      -0.400000
     25 H1          -4.8000    -0.7750     1.0620 h1         1 OZR       0.057700
     26 H2          -3.0680    -1.0260    -0.5930 h1         1 OZR       0.048700
     27 H3          -3.2670     0.0830    -2.7200 h1         1 OZR       0.054200
     28 H3A         -5.0200    -0.1680    -2.7700 h1         1 OZR       0.054200
     29 H5          -5.5200     1.7020     0.1920 h1         1 OZR       0.095700
     30 H6          -3.7270     1.3960     1.8790 ha         1 OZR       0.171000
     31 HO7         -6.5200    -1.4900    -0.4750 ho         1 OZR       0.526000
     32 HO8         -3.9420    -2.6390    -2.0320 ho         1 OZR       0.516000
     33 H9          -2.0760     1.9250    -0.6420 ha         1 OZR       0.201000
     34 H10         -0.8920     3.2480     1.2080 h1         1 OZR       0.064700
     35 H10A        -1.5360     2.1270     2.3960 h1         1 OZR       0.064700
     36 HN11        -0.0480     0.4720     1.6680 hn         1 OZR       0.315500
     37 H16          5.0180    -1.8690     0.2410 ha         1 OZR       0.154000
     38 H18          2.3560     0.7260     2.4020 ha         1 OZR       0.160000
     39 HO20         2.1700    -0.1630    -2.7860 ho         1 OZR       0.496000
     40 HO21         4.5920    -1.9870    -2.0670 ho         1 OZR       0.490000
@<TRIPOS>BOND
     1     1     2 1   
     2     1     5 1   
     3     1     7 1   
     4     1    25 1   
     5     2     3 1   
     6     2     8 1   
     7     2    26 1   
     8     3     4 1   
     9     3    27 1   
    10     3    28 1   
    11     4     5 1   
    12     5     6 1   
    13     5    29 1   
    14     6     9 2   
    15     6    30 1   
    16     7    31 1   
    17     8    32 1   
    18     9    10 1   
    19     9    33 1   
    20    10    11 1   
    21    10    34 1   
    22    10    35 1   
    23    11    12 1   
    24    11    36 1   
    25    12    13 1   
    26    12    22 2   
    27    13    14 ar  
    28    13    18 ar  
    29    14    15 ar  
    30    14    20 1   
    31    15    16 ar  
    32    15    21 1   
    33    16    17 ar  
    34    16    37 1   
    35    17    18 ar  
    36    17    19 1   
    37    18    38 1   
    38    19    23 1   
    39    19    24 1   
    40    20    39 1   
    41    21    40 1   
@<TRIPOS>SUBSTRUCTURE
     1 OZR         1 TEMP              0 ****  ****    0 ROOT
