@<TRIPOS>MOLECULE
OZS
   50    52     1     0     0
SMALL
abcg2


@<TRIPOS>ATOM
      1 C1          -2.5340    -2.9340    -1.2570 c5         1 OZS       0.096300
      2 C2          -3.6380    -2.1640    -0.5270 c5         1 OZS       0.096300
      3 C3          -2.8960    -1.7320     0.7350 c5         1 OZS       0.308300
      4 O4          -1.9760    -2.7390     1.0200 os         1 OZS      -0.431000
      5 C5          -1.8080    -3.6170    -0.0890 c5         1 OZS       0.195500
      6 C6          -0.3680    -3.8710    -0.3880 c2         1 OZS      -0.225200
      7 N7          -2.1950    -0.4610     0.5260 na         1 OZS      -0.192500
      8 O8          -3.0040    -3.8980    -2.1530 oh         1 OZS      -0.705000
      9 O9          -4.6750    -3.0170    -0.1330 oh         1 OZS      -0.704000
     10 C10          0.6580    -3.5250     0.3810 c2         1 OZS      -0.230200
     11 C11         -0.8750    -0.2600     0.2920 cc         1 OZS       0.398400
     12 C12         -2.8000     0.7580     0.4930 cc         1 OZS      -0.158000
     13 C13         -1.7940     1.6430     0.2340 cd         1 OZS       0.124300
     14 N14         -0.6010     1.0030     0.1130 nd         1 OZS      -0.638000
     15 C15         -1.8900     3.1100     0.0830 c3         1 OZS       0.297700
     16 C16          2.0890    -3.6310    -0.0530 c3         1 OZS       0.129200
     17 N17          2.5790    -2.2910    -0.3390 ns         1 OZS      -0.480900
     18 C18          3.2500    -1.5360     0.5310 c          1 OZS       0.633700
     19 C19          3.3670    -0.0800     0.2500 ca         1 OZS      -0.260600
     20 C20          4.2610     0.6630     1.0350 ca         1 OZS       0.173100
     21 C21          4.3860     2.0540     0.8350 ca         1 OZS       0.088100
     22 C22          3.5860     2.6880    -0.0860 ca         1 OZS      -0.039000
     23 C23          2.6780     1.9370    -0.8320 ca         1 OZS      -0.184200
     24 C24          2.5650     0.5730    -0.6820 ca         1 OZS      -0.001000
     25 N25          1.8140     2.6120    -1.7740 no         1 OZS       0.710200
     26 O26          5.0180     0.1300     1.9820 oh         1 OZS      -0.564100
     27 O27          5.2590     2.7740     1.5560 oh         1 OZS      -0.523100
     28 O28          3.7630    -2.0060     1.5560 o          1 OZS      -0.642100
     29 F29         -1.0830     3.7600     0.9330 f          1 OZS      -0.107333
     30 F30         -1.5460     3.5180    -1.1460 f          1 OZS      -0.107333
     31 F31         -3.1380     3.5390     0.3090 f          1 OZS      -0.107333
     32 O32          1.7860     3.8220    -1.7500 o          1 OZS      -0.400000
     33 O33          1.1700     1.9410    -2.5450 o          1 OZS      -0.400000
     34 H1          -1.8590    -2.2230    -1.7510 h1         1 OZS       0.064700
     35 H2          -4.0060    -1.3060    -1.1020 h1         1 OZS       0.075700
     36 H3          -3.5730    -1.5900     1.5800 h2         1 OZS       0.119700
     37 H5          -2.3110    -4.5690     0.1290 h1         1 OZS       0.096700
     38 H6          -0.1880    -4.3630    -1.3410 ha         1 OZS       0.186000
     39 HO8         -3.1730    -3.4790    -3.0030 ho         1 OZS       0.523000
     40 HO9         -4.8320    -3.6450    -0.8490 ho         1 OZS       0.532000
     41 H10          0.4920    -3.0540     1.3450 ha         1 OZS       0.199000
     42 H11         -0.1560    -1.0620     0.2720 h5         1 OZS       0.063100
     43 H12         -3.8580     0.8860     0.6530 h4         1 OZS       0.175000
     44 H16          2.7150    -4.0780     0.7160 h1         1 OZS       0.074700
     45 H16A         2.1870    -4.2340    -0.9560 h1         1 OZS       0.074700
     46 HN17         2.2370    -1.8750    -1.1900 hn         1 OZS       0.322500
     47 H22          3.6720     3.7580    -0.2150 ha         1 OZS       0.169000
     48 H24          1.8270     0.0410    -1.2620 ha         1 OZS       0.141000
     49 HO26         4.7240    -0.8180     2.0770 ho         1 OZS       0.541000
     50 HO27         5.7580     2.2050     2.1550 ho         1 OZS       0.490000
@<TRIPOS>BOND
     1     1     2 1   
     2     1     5 1   
     3     1     8 1   
     4     1    34 1   
     5     2     3 1   
     6     2     9 1   
     7     2    35 1   
     8     3     4 1   
     9     3     7 1   
    10     3    36 1   
    11     4     5 1   
    12     5     6 1   
    13     5    37 1   
    14     6    10 2   
    15     6    38 1   
    16     7    11 1   
    17     7    12 1   
    18     8    39 1   
    19     9    40 1   
    20    10    16 1   
    21    10    41 1   
    22    11    14 2   
    23    11    42 1   
    24    12    13 2   
    25    12    43 1   
    26    13    14 1   
    27    13    15 1   
    28    15    29 1   
    29    15    30 1   
    30    15    31 1   
    31    16    17 1   
    32    16    44 1   
    33    16    45 1   
    34    17    18 1   
    35    17    46 1   
    36    18    19 1   
    37    18    28 2   
    38    19    20 ar  
    39    19    24 ar  
    40    20    21 ar  
    41    20    26 1   
    42    21    22 ar  
    43    21    27 1   
    44    22    23 ar  
    45    22    47 1   
    46    23    24 ar  
    47    23    25 1   
    48    24    48 1   
    49    25    32 1   
    50    25    33 1   
    51    26    49 1   
    52    27    50 1   
@<TRIPOS>SUBSTRUCTURE
     1 OZS         1 TEMP              0 ****  ****    0 ROOT
