@<TRIPOS>MOLECULE
OZS
   50    52     1     0     0
SMALL
No Charge or Current Charge


@<TRIPOS>ATOM
      1 C1          -2.7390    -3.3210    -1.7090 c5         1 OZS       0.096300
      2 C2          -3.8130    -2.2810    -1.2340 c5         1 OZS       0.096300
      3 C3          -3.2620    -1.8530     0.1680 c5         1 OZS       0.308300
      4 O4          -2.7350    -3.0860     0.7000 os         1 OZS      -0.431000
      5 C5          -2.0690    -3.8040    -0.3640 c5         1 OZS       0.195500
      6 C6          -0.5760    -3.4430    -0.3500 c2         1 OZS      -0.225200
      7 N7          -2.2300    -0.8060     0.2240 na         1 OZS      -0.192500
      8 O8          -3.3850    -4.3860    -2.4420 oh         1 OZS      -0.705000
      9 O9          -5.0770    -2.9520    -1.1620 oh         1 OZS      -0.704000
     10 C10          0.0680    -3.2220     0.8140 c2         1 OZS      -0.230200
     11 C11         -1.5120    -0.2890    -0.8340 cc         1 OZS       0.398400
     12 C12         -1.8560    -0.1040     1.3530 cc         1 OZS      -0.158000
     13 C13         -0.8880     0.7790     0.9420 cd         1 OZS       0.124300
     14 N14         -0.6830     0.6560    -0.4220 nd         1 OZS      -0.638000
     15 C15         -0.1220     1.7620     1.8200 c3         1 OZS       0.297700
     16 C16          1.5430    -2.9360     0.9650 c3         1 OZS       0.129200
     17 N17          1.8510    -1.5860     0.5020 ns         1 OZS      -0.480900
     18 C18          2.9280    -0.8490     0.9330 c          1 OZS       0.633700
     19 C19          3.1400     0.5040     0.3000 ca         1 OZS      -0.260600
     20 C20          4.0090     1.4420     0.9010 ca         1 OZS       0.173100
     21 C21          4.1900     2.7210     0.3360 ca         1 OZS       0.088100
     22 C22          3.5190     3.0740    -0.8430 ca         1 OZS      -0.039000
     23 C23          2.6660     2.1430    -1.4790 ca         1 OZS      -0.184200
     24 C24          2.4860     0.8630    -0.9040 ca         1 OZS      -0.001000
     25 N25          1.9570     2.5110    -2.7460 no         1 OZS       0.710200
     26 O26          4.6850     1.1200     2.0450 oh         1 OZS      -0.564100
     27 O27          5.0280     3.6180     0.9410 oh         1 OZS      -0.523100
     28 O28          3.6920    -1.2730     1.7910 o          1 OZS      -0.642100
     29 F29          0.8220     1.1360     2.5590 f          1 OZS      -0.107333
     30 F30          0.5090     2.7230     1.1050 f          1 OZS      -0.107333
     31 F31         -0.9430     2.3980     2.6880 f          1 OZS      -0.107333
     32 O32          2.0380     3.6820    -3.1410 o          1 OZS      -0.400000
     33 O33          1.3600     1.6210    -3.3650 o          1 OZS      -0.400000
     34 H1          -1.9990    -2.8220    -2.3500 h1         1 OZS       0.064700
     35 H2          -3.8770    -1.4230    -1.9190 h1         1 OZS       0.075700
     36 H3          -4.0810    -1.4870     0.8000 h2         1 OZS       0.119700
     37 H5          -2.2140    -4.8820    -0.2010 h1         1 OZS       0.096700
     38 H6          -0.0150    -3.4160    -1.2860 ha         1 OZS       0.186000
     39 HO8         -2.6790    -4.9070    -2.8980 ho         1 OZS       0.523000
     40 HO9         -4.8750    -3.7860    -1.6690 ho         1 OZS       0.532000
     41 H10         -0.4630    -3.2690     1.7670 ha         1 OZS       0.199000
     42 H11         -1.6240    -0.6360    -1.8530 h5         1 OZS       0.063100
     43 H12         -2.2710    -0.2900     2.3360 h4         1 OZS       0.175000
     44 H16          1.8330    -3.0390     2.0200 h1         1 OZS       0.074700
     45 H16A         2.1320    -3.6570     0.3800 h1         1 OZS       0.074700
     46 HN17         1.2090    -1.1370    -0.1370 hn         1 OZS       0.322500
     47 H22          3.6760     4.0670    -1.2590 ha         1 OZS       0.169000
     48 H24          1.8390     0.1480    -1.4060 ha         1 OZS       0.141000
     49 HO26         4.4830     0.1580     2.2110 ho         1 OZS       0.541000
     50 HO27         5.3890     3.1690     1.7400 ho         1 OZS       0.490000
@<TRIPOS>BOND
     1     1     2 1   
     2     1     5 1   
     3     1     8 1   
     4     1    34 1   
     5     2     3 1   
     6     2     9 1   
     7     2    35 1   
     8     3     4 1   
     9     3     7 1   
    10     3    36 1   
    11     4     5 1   
    12     5     6 1   
    13     5    37 1   
    14     6    10 2   
    15     6    38 1   
    16     7    11 1   
    17     7    12 1   
    18     8    39 1   
    19     9    40 1   
    20    10    16 1   
    21    10    41 1   
    22    11    14 2   
    23    11    42 1   
    24    12    13 2   
    25    12    43 1   
    26    13    14 1   
    27    13    15 1   
    28    15    29 1   
    29    15    30 1   
    30    15    31 1   
    31    16    17 1   
    32    16    44 1   
    33    16    45 1   
    34    17    18 1   
    35    17    46 1   
    36    18    19 1   
    37    18    28 2   
    38    19    20 ar  
    39    19    24 ar  
    40    20    21 ar  
    41    20    26 1   
    42    21    22 ar  
    43    21    27 1   
    44    22    23 ar  
    45    22    47 1   
    46    23    24 ar  
    47    23    25 1   
    48    24    48 1   
    49    25    32 1   
    50    25    33 1   
    51    26    49 1   
    52    27    50 1   
@<TRIPOS>SUBSTRUCTURE
     1 OZS         1 TEMP              0 ****  ****    0 ROOT
