@<TRIPOS>MOLECULE
OZT
   16    16     1     0     0
SMALL
abcg2


@<TRIPOS>ATOM
      1 O1           1.2520    -0.5900     0.8570 os         1 OZT      -0.445100
      2 C2           0.0630    -1.2380     0.3650 c5         1 OZT       0.171300
      3 CA          -0.5470    -0.1880    -0.5760 c5         1 OZT      -0.089300
      4 N            0.6390     0.5660    -0.9050 ns         1 OZT      -0.486900
      5 C5           1.5740     0.4410     0.0600 c          1 OZT       0.686100
      6 O6           2.5750     1.0980     0.2340 o          1 OZT      -0.597000
      7 C7           0.4310    -2.5380    -0.3180 c3         1 OZT      -0.106100
      8 C           -1.6730     0.6510     0.0750 c          1 OZT       0.712000
      9 O           -1.5490     1.8860     0.0500 o          1 OZT      -0.714000
     10 H2          -0.5830    -1.4330     1.2200 h1         1 OZT       0.096700
     11 HA          -0.9570    -0.6750    -1.4660 h1         1 OZT       0.058700
     12 HN           0.5600     1.4460    -1.3910 hn         1 OZT       0.329500
     13 H17          0.9660    -3.2030     0.3610 hc         1 OZT       0.033033
     14 H27         -0.4760    -3.0490    -0.6400 hc         1 OZT       0.033033
     15 H37          1.0520    -2.3660    -1.1990 hc         1 OZT       0.033033
     16 OXT         -2.6120    -0.0190     0.5420 o          1 OZT      -0.714000
@<TRIPOS>BOND
     1     1     2 1   
     2     1     5 1   
     3     2     3 1   
     4     2     7 1   
     5     2    10 1   
     6     3     4 1   
     7     3     8 1   
     8     3    11 1   
     9     4     5 1   
    10     4    12 1   
    11     5     6 2   
    12     7    13 1   
    13     7    14 1   
    14     7    15 1   
    15     8     9 1   
    16     8    16 1   
@<TRIPOS>SUBSTRUCTURE
     1 OZT         1 TEMP              0 ****  ****    0 ROOT
