@<TRIPOS>MOLECULE
OZT
   16    16     1     0     0
SMALL
No Charge or Current Charge


@<TRIPOS>ATOM
      1 O1           1.6460    -0.8320     0.3700 os         1 OZT      -0.445100
      2 C2           0.2500    -1.1940     0.2710 c5         1 OZT       0.171300
      3 CA          -0.3650    -0.0960    -0.6480 c5         1 OZT      -0.089300
      4 N            0.6230     0.9670    -0.4110 ns         1 OZT      -0.486900
      5 C5           1.7880     0.4950     0.1080 c          1 OZT       0.686100
      6 O6           2.7980     1.1520     0.2930 o          1 OZT      -0.597000
      7 C7           0.1290    -2.6330    -0.2680 c3         1 OZT      -0.106100
      8 C           -1.7790     0.3830    -0.1710 c          1 OZT       0.712000
      9 O           -2.2180     1.4340    -0.6180 o          1 OZT      -0.714000
     10 H2          -0.1740    -1.1500     1.2840 h1         1 OZT       0.096700
     11 HA          -0.4130    -0.4010    -1.7010 h1         1 OZT       0.058700
     12 HN           0.5490     1.9430    -0.6750 hn         1 OZT       0.329500
     13 H17          0.6160    -3.3470     0.4070 hc         1 OZT       0.033033
     14 H27         -0.9230    -2.9270    -0.3620 hc         1 OZT       0.033033
     15 H37          0.5940    -2.7280    -1.2570 hc         1 OZT       0.033033
     16 OXT         -2.4060    -0.2750     0.6470 o          1 OZT      -0.714000
@<TRIPOS>BOND
     1     1     2 1   
     2     1     5 1   
     3     2     3 1   
     4     2     7 1   
     5     2    10 1   
     6     3     4 1   
     7     3     8 1   
     8     3    11 1   
     9     4     5 1   
    10     4    12 1   
    11     5     6 2   
    12     7    13 1   
    13     7    14 1   
    14     7    15 1   
    15     8     9 1   
    16     8    16 1   
@<TRIPOS>SUBSTRUCTURE
     1 OZT         1 TEMP              0 ****  ****    0 ROOT
