@<TRIPOS>MOLECULE
OZU
   21    21     1     0     0
SMALL
abcg2


@<TRIPOS>ATOM
      1 C1           5.4290     6.6840    42.5400 c3         1 OZU      -0.077100
      2 C2           5.4790     7.8320    41.5400 c3         1 OZU      -0.155400
      3 C3           6.2340     9.0440    42.0560 c          1 OZU       0.602100
      4 C6           7.3010    11.1290    41.1890 ca         1 OZU      -0.072000
      5 C7           7.7260    11.6970    42.3920 ca         1 OZU      -0.098000
      6 C8           8.3480    12.9380    42.3480 ca         1 OZU      -0.135000
      7 C11          7.5350    11.8490    40.0090 ca         1 OZU       0.282900
      8 O4           6.4180     9.2530    43.2490 o          1 OZU      -0.579100
      9 N5           6.6620     9.8890    41.0710 ns         1 OZU      -0.148000
     10 C9           8.5310    13.5750    41.1300 ca         1 OZU       0.301900
     11 N10          8.1300    13.0350    39.9720 nb         1 OZU      -0.642000
     12 H13          4.8480     5.8580    42.1300 hc         1 OZU       0.046367
     13 H1           6.4320     6.3170    42.7660 hc         1 OZU       0.046367
     14 H2           4.9650     6.9990    43.4740 hc         1 OZU       0.046367
     15 H20          4.4650     8.1730    41.3040 hc         1 OZU       0.058200
     16 H14          5.9180     7.5080    40.5930 hc         1 OZU       0.058200
     17 H16          7.5710    11.1810    43.3240 ha         1 OZU       0.155000
     18 H17          8.6890    13.4070    43.2620 ha         1 OZU       0.125000
     19 H19          7.2160    11.4280    39.0590 h4         1 OZU       0.012100
     20 H15          6.4510     9.6040    40.1250 hn         1 OZU       0.150000
     21 H18          9.0130    14.5440    41.0750 h4         1 OZU       0.022100
@<TRIPOS>BOND
     1     1     2 1   
     2     1    12 1   
     3     1    13 1   
     4     1    14 1   
     5     2     3 1   
     6     2    15 1   
     7     2    16 1   
     8     3     8 2   
     9     3     9 1   
    10     4     5 ar  
    11     4     7 ar  
    12     4     9 1   
    13     5     6 ar  
    14     5    17 1   
    15     6    10 ar  
    16     6    18 1   
    17     7    11 ar  
    18     7    19 1   
    19     9    20 1   
    20    10    11 ar  
    21    10    21 1   
@<TRIPOS>SUBSTRUCTURE
     1 OZU         1 TEMP              0 ****  ****    0 ROOT
