@<TRIPOS>MOLECULE
OZU
   21    21     1     0     0
SMALL
No Charge or Current Charge


@<TRIPOS>ATOM
      1 C1           5.7840     6.6680    42.1600 c3         1 OZU      -0.077100
      2 C2           5.0710     7.9680    41.7270 c3         1 OZU      -0.155400
      3 C3           5.8090     9.2180    42.2280 c          1 OZU       0.602100
      4 C6           7.2620    11.1150    41.2690 ca         1 OZU      -0.072000
      5 C7           7.5590    11.8280    42.4520 ca         1 OZU      -0.098000
      6 C8           8.3470    12.9880    42.3540 ca         1 OZU      -0.135000
      7 C11          7.7800    11.6110    40.0510 ca         1 OZU       0.282900
      8 O4           5.7680     9.5550    43.4060 o          1 OZU      -0.579100
      9 N5           6.4770     9.9250    41.2350 ns         1 OZU      -0.148000
     10 C9           8.8130    13.4010    41.0950 ca         1 OZU       0.301900
     11 N10          8.5380    12.7280    39.9550 nb         1 OZU      -0.642000
     12 H13          5.2380     5.7900    41.7930 hc         1 OZU       0.046367
     13 H1           6.8040     6.6300    41.7570 hc         1 OZU       0.046367
     14 H2           5.8430     6.6000    43.2540 hc         1 OZU       0.046367
     15 H20          4.0600     7.9620    42.1510 hc         1 OZU       0.058200
     16 H14          5.0110     7.9780    40.6320 hc         1 OZU       0.058200
     17 H16          7.2030    11.5100    43.4280 ha         1 OZU       0.155000
     18 H17          8.5980    13.5640    43.2400 ha         1 OZU       0.125000
     19 H19          7.5770    11.0920    39.1140 h4         1 OZU       0.012100
     20 H15          6.3940     9.5160    40.3130 hn         1 OZU       0.150000
     21 H18          9.4260    14.2970    40.9950 h4         1 OZU       0.022100
@<TRIPOS>BOND
     1     1     2 1   
     2     1    12 1   
     3     1    13 1   
     4     1    14 1   
     5     2     3 1   
     6     2    15 1   
     7     2    16 1   
     8     3     8 2   
     9     3     9 1   
    10     4     5 ar  
    11     4     7 ar  
    12     4     9 1   
    13     5     6 ar  
    14     5    17 1   
    15     6    10 ar  
    16     6    18 1   
    17     7    11 ar  
    18     7    19 1   
    19     9    20 1   
    20    10    11 ar  
    21    10    21 1   
@<TRIPOS>SUBSTRUCTURE
     1 OZU         1 TEMP              0 ****  ****    0 ROOT
