@<TRIPOS>MOLECULE
OZV
   53    57     1     0     0
SMALL
abcg2


@<TRIPOS>ATOM
      1 O3         -14.2000   -11.4580    12.3260 oh         1 OZV      -0.791000
      2 C4         -13.2280   -12.0290    21.1260 c2         1 OZV       0.066000
      3 C5         -12.6940   -12.4000    22.3580 c2         1 OZV      -0.234000
      4 C6         -13.5010   -12.1680    23.4890 c2         1 OZV       0.256000
      5 N1         -14.7110   -11.6080    23.2980 n2         1 OZV      -0.302000
      6 C8         -11.2140   -12.9010    20.9040 c2         1 OZV      -0.027000
      7 N3         -14.4250   -11.4700    20.9170 n2         1 OZV      -0.228000
      8 O          -12.5450   -13.2740    12.6690 os         1 OZV      -1.217000
      9 C2         -15.0970   -11.3000    22.0550 c2         1 OZV       0.042000
     10 N6         -13.1120   -12.4760    24.7350 nv         1 OZV      -0.358000
     11 O1         -12.7310   -12.2110    10.3180 o          1 OZV      -1.083000
     12 O2         -11.7980   -10.9250    12.3040 os         1 OZV      -1.174000
     13 C1         -12.3800   -12.1470    18.7620 c5         1 OZV       0.145000
     14 C10        -11.6060   -10.9170    18.2550 c5         1 OZV      -0.046000
     15 C3         -10.3290   -11.5350    17.6620 c5         1 OZV       0.023000
     16 C7         -10.8020   -12.9130    17.1880 c5         1 OZV       0.007000
     17 C9          -9.7700   -14.0220    17.2720 c3         1 OZV       0.059000
     18 N7         -11.4330   -12.9450    22.1950 n2         1 OZV      -0.133000
     19 N9         -12.2660   -12.3590    20.1970 na         1 OZV      -0.196000
     20 O01        -10.1180   -13.8850    12.2700 os         1 OZV      -1.221000
     21 O1A         -9.3940   -15.6380    14.8250 oh         1 OZV      -1.107000
     22 O8         -12.3110   -10.2600    17.2020 oh         1 OZV      -0.339000
     23 O2A         -6.9040   -15.1590    15.2530 o          1 OZV      -1.089000
     24 O7          -9.7790   -10.8120    16.5860 oh         1 OZV      -0.296000
     25 O4         -10.2260   -12.0130    13.9200 os         1 OZV      -1.231000
     26 O9         -11.8670   -13.2750    18.0800 os         1 OZV      -0.254000
     27 O5          -8.6900   -13.7390    16.3690 os         1 OZV      -0.768000
     28 P01        -11.0990   -10.6700    13.7320 p5         1 OZV       2.784000
     29 P02        -11.5740   -14.5560    12.5060 p5         1 OZV       2.735000
     30 P1         -12.8440   -11.9990    11.7570 p5         1 OZV       2.739000
     31 P2          -9.2070   -12.7730    12.9590 p5         1 OZV       2.816000
     32 PA          -8.2850   -14.6630    15.1400 p5         1 OZV       2.672000
     33 H1         -14.9880   -11.7470    11.8380 ho         1 OZV       0.280000
     34 H4         -13.7350   -12.3140    25.5100 hn         1 OZV       0.247500
     35 H5         -12.2260   -12.9200    24.9030 hn         1 OZV       0.247500
     36 H6         -13.4450   -12.0320    18.5580 h2         1 OZV       0.149000
     37 H7         -11.4050   -10.2090    19.0570 h1         1 OZV       0.109000
     38 H8          -9.6010   -11.6570    18.4690 h1         1 OZV       0.098000
     39 H9         -11.1830   -12.8470    16.1670 h1         1 OZV       0.140000
     40 H10        -10.2340   -14.9750    17.0260 h1         1 OZV       0.095000
     41 H11         -9.3490   -14.0740    18.2760 h1         1 OZV       0.095000
     42 H14        -13.1500    -9.9050    17.5270 ho         1 OZV       0.239000
     43 H15         -9.4380    -9.9680    16.9110 ho         1 OZV       0.225000
     44 O03         -8.5270   -11.9340    11.9790 o          1 OZV      -1.092000
     45 O04        -12.2780   -10.8560    14.7100 oh         1 OZV      -0.871000
     46 O3A         -8.2540   -13.5200    13.9320 os         1 OZV      -1.187000
     47 O10        -11.5780   -15.1450    13.9150 oh         1 OZV      -0.957000
     48 O6         -11.9240   -15.3890    11.3570 o          1 OZV      -1.085000
     49 H2         -10.3250   -13.2570    20.4120 h5         1 OZV       0.207000
     50 H12        -12.1940   -10.5910    15.6830 ho         1 OZV       0.341000
     51 H16        -10.5890   -15.3670    14.3620 DU         1 OZV       0.374000
     52 O02        -10.3150    -9.4410    13.7180 o          1 OZV      -1.088000
     53 H3         -16.0810   -10.8530    21.9670 h5         1 OZV       0.182000
@<TRIPOS>BOND
     1     1    30 1   
     2     1    33 1   
     3     2     3 1   
     4     2     7 1   
     5     2    19 1   
     6     3     4 1   
     7     3    18 1   
     8     4     5 1   
     9     4    10 1   
    10     5     9 1   
    11     6    18 1   
    12     6    19 1   
    13     6    49 1   
    14     7     9 1   
    15     8    29 1   
    16     8    30 1   
    17     9    53 1   
    18    10    34 1   
    19    10    35 1   
    20    11    30 1   
    21    12    28 1   
    22    12    30 1   
    23    13    14 1   
    24    13    19 1   
    25    13    26 1   
    26    13    36 1   
    27    14    15 1   
    28    14    22 1   
    29    14    37 1   
    30    15    16 1   
    31    15    24 1   
    32    15    38 1   
    33    16    17 1   
    34    16    26 1   
    35    16    39 1   
    36    17    27 1   
    37    17    40 1   
    38    17    41 1   
    39    20    29 1   
    40    20    31 1   
    41    21    32 1   
    42    21    51 1   
    43    22    42 1   
    44    23    32 1   
    45    24    43 1   
    46    25    28 1   
    47    25    31 1   
    48    27    32 1   
    49    28    45 1   
    50    28    52 1   
    51    29    47 1   
    52    29    48 1   
    53    31    44 1   
    54    31    46 1   
    55    32    46 1   
    56    45    50 1   
    57    47    51 1   
@<TRIPOS>SUBSTRUCTURE
     1 OZV         1 TEMP              0 ****  ****    0 ROOT
