@<TRIPOS>MOLECULE
OZW
   36    37     1     0     0
SMALL
No Charge or Current Charge


@<TRIPOS>ATOM
      1 C4          17.4490    10.8410   -45.5630 ca         1 OZW      -0.099500
      2 C5          17.3170    11.1510   -44.2000 ca         1 OZW      -0.178000
      3 C6          17.2770    13.2150   -46.1250 ca         1 OZW       0.172600
      4 C1          17.1380    13.5130   -44.7570 ca         1 OZW      -0.180500
      5 C2          17.4270    11.8690   -46.5220 ca         1 OZW      -0.180500
      6 C3          17.1600    12.4870   -43.7960 ca         1 OZW      -0.099500
      7 N           19.4860    20.1110   -49.9990 n8         1 OZW      -0.893800
      8 CA          20.8860    19.8410   -49.4960 c3         1 OZW       0.027500
      9 C           21.9840    20.9700   -49.7640 c          1 OZW       0.931600
     10 O           22.0490    21.9140   -48.9800 o          1 OZW      -0.833300
     11 CG          20.4540    17.2980   -49.5240 ca         1 OZW      -0.066300
     12 CD1         19.6490    16.6170   -50.4580 ca         1 OZW      -0.099500
     13 CD2         20.4220    16.9030   -48.1730 ca         1 OZW      -0.099500
     14 CE1         18.8160    15.5620   -50.0430 ca         1 OZW      -0.186000
     15 CE2         19.5880    15.8480   -47.7600 ca         1 OZW      -0.186000
     16 CZ          18.7740    15.1760   -48.6930 ca         1 OZW       0.080600
     17 N1          17.2420    14.2680   -47.0540 nu         1 OZW      -0.506400
     18 N2          17.9400    14.1160   -48.3100 nu         1 OZW      -0.499400
     19 H41         17.5670     9.8050   -45.8770 ha         1 OZW       0.121500
     20 H51         17.3330    10.3560   -43.4570 ha         1 OZW       0.123000
     21 H11         17.0140    14.5440   -44.4350 ha         1 OZW       0.138500
     22 H21         17.5250    11.6140   -47.5740 ha         1 OZW       0.138500
     23 H31         17.0540    12.7280   -42.7390 ha         1 OZW       0.121500
     24 HA          20.7890    19.7770   -48.4040 h1         1 OZW      -0.004300
     25 HD11        19.6660    16.9070   -51.5070 ha         1 OZW       0.137500
     26 HD21        21.0470    17.4120   -47.4420 ha         1 OZW       0.137500
     27 HE11        18.2020    15.0470   -50.7790 ha         1 OZW       0.119000
     28 HE21        19.5910    15.5490   -46.7140 ha         1 OZW       0.119000
     29 H12         17.3120    15.2040   -46.6450 hn         1 OZW       0.400800
     30 H22         17.3210    13.8220   -49.0740 hn         1 OZW       0.419800
     31 OXT         22.7370    20.8730   -50.7300 o          1 OZW      -0.833300
     32 H1          18.8800    19.3350   -49.7170 hn         1 OZW       0.327800
     33 CB          21.3660    18.4400   -49.9700 c3         1 OZW      -0.017100
     34 H2          19.1060    20.9290   -49.5100 hn         1 OZW       0.327800
     35 HB2         21.4670    18.4440   -51.0630 hc         1 OZW       0.058700
     36 HB3         22.3760    18.2650   -49.5770 hc         1 OZW       0.058700
@<TRIPOS>BOND
     1     1     2 ar  
     2     1     5 ar  
     3     1    19 1   
     4     2     6 ar  
     5     2    20 1   
     6     3     4 ar  
     7     3     5 ar  
     8     3    17 1   
     9     4     6 ar  
    10     4    21 1   
    11     5    22 1   
    12     6    23 1   
    13     7     8 1   
    14     7    32 1   
    15     7    34 1   
    16     8     9 1   
    17     8    24 1   
    18     8    33 1   
    19     9    10 1   
    20     9    31 1   
    21    11    12 ar  
    22    11    13 ar  
    23    11    33 1   
    24    12    14 ar  
    25    12    25 1   
    26    13    15 ar  
    27    13    26 1   
    28    14    16 ar  
    29    14    27 1   
    30    15    16 ar  
    31    15    28 1   
    32    16    18 1   
    33    17    18 1   
    34    17    29 1   
    35    18    30 1   
    36    33    35 1   
    37    33    36 1   
@<TRIPOS>SUBSTRUCTURE
     1 OZW         1 TEMP              0 ****  ****    0 ROOT
