@<TRIPOS>MOLECULE
OZW
   36    37     1     0     0
SMALL
bcc


@<TRIPOS>ATOM
      1 C4          18.5050    11.3560   -45.8620 ca         1 OZW      -0.099500
      2 C5          18.2420    11.3990   -44.5000 ca         1 OZW      -0.178000
      3 C6          17.2210    13.3660   -46.2210 ca         1 OZW       0.172600
      4 C1          16.9590    13.4120   -44.8470 ca         1 OZW      -0.180500
      5 C2          18.0060    12.3250   -46.7220 ca         1 OZW      -0.180500
      6 C3          17.4640    12.4390   -44.0020 ca         1 OZW      -0.099500
      7 N           19.8380    19.8980   -50.1960 n8         1 OZW      -0.893800
      8 CA          20.9950    19.5310   -49.3960 c3         1 OZW       0.027500
      9 C           22.1990    20.4670   -49.6840 c          1 OZW       0.931600
     10 O           21.9610    21.5250   -50.3000 o          1 OZW      -0.833300
     11 CG          20.2450    17.1150   -49.2980 ca         1 OZW      -0.066300
     12 CD1         19.3430    16.6580   -50.2570 ca         1 OZW      -0.099500
     13 CD2         20.0510    16.6830   -47.9890 ca         1 OZW      -0.099500
     14 CE1         18.3060    15.8000   -49.9310 ca         1 OZW      -0.186000
     15 CE2         19.0170    15.8250   -47.6400 ca         1 OZW      -0.186000
     16 CZ          18.1290    15.3670   -48.6150 ca         1 OZW       0.080600
     17 N1          16.6600    14.3310   -47.0410 nu         1 OZW      -0.506400
     18 N2          17.1110    14.4610   -48.3270 nu         1 OZW      -0.499400
     19 H41         19.1120    10.5580   -46.2700 ha         1 OZW       0.121500
     20 H51         18.6370    10.6400   -43.8370 ha         1 OZW       0.123000
     21 H11         16.3540    14.2170   -44.4440 ha         1 OZW       0.138500
     22 H21         18.2230    12.2750   -47.7800 ha         1 OZW       0.138500
     23 H31         17.2470    12.4960   -42.9430 ha         1 OZW       0.121500
     24 HA          20.7990    19.6310   -48.3130 h1         1 OZW      -0.004300
     25 HD11        19.4540    16.9770   -51.2870 ha         1 OZW       0.137500
     26 HD21        20.7300    17.0170   -47.2130 ha         1 OZW       0.137500
     27 HE11        17.6250    15.4620   -50.7040 ha         1 OZW       0.119000
     28 HE21        18.9170    15.5110   -46.6090 ha         1 OZW       0.119000
     29 H12         16.3890    15.1920   -46.5820 hn         1 OZW       0.400800
     30 H22         16.3640    14.4280   -49.0050 hn         1 OZW       0.419800
     31 OXT         23.3030    20.0950   -49.2390 o          1 OZW      -0.833300
     32 H1          18.9910    19.5670   -49.7520 hn         1 OZW       0.327800
     33 CB          21.3590    18.0620   -49.6440 c3         1 OZW      -0.017100
     34 H2          19.7820    20.9060   -50.2320 hn         1 OZW       0.327800
     35 HB2         21.6310    17.9420   -50.6970 hc         1 OZW       0.058700
     36 HB3         22.2430    17.8180   -49.0530 hc         1 OZW       0.058700
@<TRIPOS>BOND
     1     1     2 ar  
     2     1     5 ar  
     3     1    19 1   
     4     2     6 ar  
     5     2    20 1   
     6     3     4 ar  
     7     3     5 ar  
     8     3    17 1   
     9     4     6 ar  
    10     4    21 1   
    11     5    22 1   
    12     6    23 1   
    13     7     8 1   
    14     7    32 1   
    15     7    34 1   
    16     8     9 1   
    17     8    24 1   
    18     8    33 1   
    19     9    10 1   
    20     9    31 1   
    21    11    12 ar  
    22    11    13 ar  
    23    11    33 1   
    24    12    14 ar  
    25    12    25 1   
    26    13    15 ar  
    27    13    26 1   
    28    14    16 ar  
    29    14    27 1   
    30    15    16 ar  
    31    15    28 1   
    32    16    18 1   
    33    17    18 1   
    34    17    29 1   
    35    18    30 1   
    36    33    35 1   
    37    33    36 1   
@<TRIPOS>SUBSTRUCTURE
     1 OZW         1 TEMP              0 ****  ****    0 ROOT
