@<TRIPOS>MOLECULE
OZX
   33    35     1     0     0
SMALL
abcg2


@<TRIPOS>ATOM
      1 N1           6.7910     0.3540    17.5150 nb         1 OZX      -0.652000
      2 C4          10.5180    -0.6520    22.9720 ca         1 OZX       0.368300
      3 C5           9.0690    -1.0430    22.8740 c3         1 OZX      -0.202700
      4 C6           8.3350    -0.1380    21.8930 c          1 OZX       0.607100
      5 C7           6.9530    -0.1140    19.8700 ca         1 OZX      -0.076000
      6 C8           7.4040    -0.2220    18.5790 ca         1 OZX       0.310900
      7 C10          5.1430     1.2520    19.0260 ca         1 OZX      -0.091000
      8 C13          4.0470     1.5080    21.5790 ca         1 OZX      -0.094000
      9 C15          5.7740     0.6300    20.1400 ca         1 OZX      -0.001000
     10 O            8.3530     1.0820    22.0080 o          1 OZX      -0.576100
     11 C3          11.0430    -0.0330    24.0990 ca         1 OZX      -0.140000
     12 C2          12.3890     0.3190    24.1060 ca         1 OZX      -0.063000
     13 C1          13.1710     0.0490    22.9940 ca         1 OZX      -0.144000
     14 N2          11.2730    -0.9170    21.8930 nb         1 OZX      -0.669000
     15 C           12.5390    -0.5720    21.9240 ca         1 OZX       0.455000
     16 CL          13.4820    -0.9390    20.4850 cl         1 OZX      -0.178000
     17 N            7.6570    -0.7800    20.9090 ns         1 OZX      -0.161000
     18 C14          5.1920     0.7680    21.4210 ca         1 OZX      -0.085000
     19 C12          3.4320     2.1420    20.4760 ca         1 OZX      -0.107000
     20 C11          3.9680     2.0140    19.2220 ca         1 OZX      -0.085000
     21 C9           5.7110     1.0670    17.7430 ca         1 OZX       0.356900
     22 H1           8.5820    -0.9280    23.8430 hc         1 OZX       0.074700
     23 H2           8.9910    -2.0890    22.5750 hc         1 OZX       0.074700
     24 H3           8.3010    -0.7950    18.3720 h4         1 OZX       0.026100
     25 H4           3.6050     1.6070    22.5620 ha         1 OZX       0.115000
     26 H5          10.4100     0.1680    24.9520 ha         1 OZX       0.131000
     27 H6          12.8250     0.8030    24.9710 ha         1 OZX       0.127000
     28 H7          14.2200     0.3050    22.9530 ha         1 OZX       0.142000
     29 H8           7.7930    -1.7750    20.8110 hn         1 OZX       0.159000
     30 H9           5.6520     0.2870    22.2710 ha         1 OZX       0.121000
     31 H10          2.5310     2.7240    20.6290 ha         1 OZX       0.117000
     32 H11          3.5020     2.4850    18.3650 ha         1 OZX       0.117000
     33 H12          5.2330     1.5340    16.8870 h4         1 OZX       0.021100
@<TRIPOS>BOND
     1     1     6 ar  
     2     1    21 ar  
     3     2     3 1   
     4     2    11 ar  
     5     2    14 ar  
     6     3     4 1   
     7     3    22 1   
     8     3    23 1   
     9     4    10 2   
    10     4    17 1   
    11     5     6 ar  
    12     5     9 ar  
    13     5    17 1   
    14     6    24 1   
    15     7     9 ar  
    16     7    20 ar  
    17     7    21 ar  
    18     8    18 ar  
    19     8    19 ar  
    20     8    25 1   
    21     9    18 ar  
    22    11    12 ar  
    23    11    26 1   
    24    12    13 ar  
    25    12    27 1   
    26    13    15 ar  
    27    13    28 1   
    28    14    15 ar  
    29    15    16 1   
    30    17    29 1   
    31    18    30 1   
    32    19    20 ar  
    33    19    31 1   
    34    20    32 1   
    35    21    33 1   
@<TRIPOS>SUBSTRUCTURE
     1 OZX         1 TEMP              0 ****  ****    0 ROOT
