@<TRIPOS>MOLECULE
OZX
   33    35     1     0     0
SMALL
No Charge or Current Charge


@<TRIPOS>ATOM
      1 N1           7.1080     0.6960    17.6190 nb         1 OZX      -0.652000
      2 C4          10.4450    -0.6720    23.0310 ca         1 OZX       0.368300
      3 C5           8.9720    -0.9740    23.1540 c3         1 OZX      -0.202700
      4 C6           8.2110    -0.0050    22.2650 c          1 OZX       0.607100
      5 C7           7.1000     0.0990    19.9810 ca         1 OZX      -0.076000
      6 C8           7.6830     0.1180    18.6970 ca         1 OZX       0.310900
      7 C10          5.2190     1.2940    19.0240 ca         1 OZX      -0.091000
      8 C13          3.8460     1.2620    21.4740 ca         1 OZX      -0.094000
      9 C15          5.8190     0.6860    20.1500 ca         1 OZX      -0.001000
     10 O            7.9880     1.1490    22.6110 o          1 OZX      -0.576100
     11 C3          11.1090     0.1450    23.9660 ca         1 OZX      -0.140000
     12 C2          12.4810     0.3990    23.8050 ca         1 OZX      -0.063000
     13 C1          13.1330    -0.1810    22.7040 ca         1 OZX      -0.144000
     14 N2          11.0720    -1.2290    21.9720 nb         1 OZX      -0.669000
     15 C           12.3910    -0.9820    21.8210 ca         1 OZX       0.455000
     16 Cl          13.1640    -1.7240    20.4290 cl         1 OZX      -0.178000
     17 N            7.8250    -0.5180    21.0370 ns         1 OZX      -0.161000
     18 C14          5.1130     0.6610    21.3740 ca         1 OZX      -0.085000
     19 C12          3.2680     1.8850    20.3560 ca         1 OZX      -0.107000
     20 C11          3.9510     1.8970    19.1300 ca         1 OZX      -0.085000
     21 C9           5.9000     1.2790    17.7900 ca         1 OZX       0.356900
     22 H1           8.6510    -0.8390    24.1930 hc         1 OZX       0.074700
     23 H2           8.7860    -2.0070    22.8380 hc         1 OZX       0.074700
     24 H3           8.6600    -0.3340    18.5300 h4         1 OZX       0.026100
     25 H4           3.3100     1.2420    22.4210 ha         1 OZX       0.115000
     26 H5          10.5650     0.5760    24.8030 ha         1 OZX       0.131000
     27 H6          13.0230     1.0260    24.5100 ha         1 OZX       0.127000
     28 H7          14.1930    -0.0160    22.5320 ha         1 OZX       0.142000
     29 H8           8.1400    -1.4610    20.8470 hn         1 OZX       0.159000
     30 H9           5.5240     0.1720    22.2510 ha         1 OZX       0.121000
     31 H10          2.2870     2.3480    20.4380 ha         1 OZX       0.117000
     32 H11          3.4930     2.3700    18.2630 ha         1 OZX       0.117000
     33 H12          5.4590     1.7380    16.9060 h4         1 OZX       0.021100
@<TRIPOS>BOND
     1     1     6 ar  
     2     1    21 ar  
     3     2     3 1   
     4     2    11 ar  
     5     2    14 ar  
     6     3     4 1   
     7     3    22 1   
     8     3    23 1   
     9     4    10 2   
    10     4    17 1   
    11     5     6 ar  
    12     5     9 ar  
    13     5    17 1   
    14     6    24 1   
    15     7     9 ar  
    16     7    20 ar  
    17     7    21 ar  
    18     8    18 ar  
    19     8    19 ar  
    20     8    25 1   
    21     9    18 ar  
    22    11    12 ar  
    23    11    26 1   
    24    12    13 ar  
    25    12    27 1   
    26    13    15 ar  
    27    13    28 1   
    28    14    15 ar  
    29    15    16 1   
    30    17    29 1   
    31    18    30 1   
    32    19    20 ar  
    33    19    31 1   
    34    20    32 1   
    35    21    33 1   
@<TRIPOS>SUBSTRUCTURE
     1 OZX         1 TEMP              0 ****  ****    0 ROOT
