@<TRIPOS>MOLECULE
OZY
  111   115     1     0     0
SMALL
bcc


@<TRIPOS>ATOM
      1 O3P          0.4240     3.9140     0.9350 o          1 OZY      -0.883833
      2 P1P          1.6840     3.8030     1.8320 p5         1 OZY       1.332900
      3 O1P          1.9860     5.0590     2.6140 o          1 OZY      -0.883833
      4 O2P          1.7250     2.5000     2.6380 o          1 OZY      -0.883833
      5 O4P          2.9600     3.7190     0.7530 os         1 OZY      -0.567200
      6 C5A          3.1230     2.5790    -0.0520 c3         1 OZY       0.252700
      7 C5P          3.0190     2.9140    -1.5190 ca         1 OZY      -0.113600
      8 C6P          2.1780     3.9330    -1.9450 ca         1 OZY       0.414200
      9 N1P          2.0100     4.2640    -3.2180 nb         1 OZY      -0.656000
     10 C4P          3.7310     2.2030    -2.4890 ca         1 OZY      -0.114300
     11 CPP          3.5450     2.5590    -3.8250 ca         1 OZY      -0.002200
     12 OPP          4.2230     1.8760    -4.7740 oh         1 OZY      -0.521100
     13 C2P          2.6720     3.6010    -4.1560 ca         1 OZY       0.291600
     14 C2A          2.4530     3.9960    -5.5880 c3         1 OZY      -0.133400
     15 C4A          4.6590     1.0800    -2.1070 c3         1 OZY       0.218100
     16 N19          3.9320     0.0010    -1.4630 n7         1 OZY      -0.785200
     17 C23          4.7950    -1.1050    -1.1120 c3         1 OZY       0.173800
     18 C22          4.0150    -2.2190    -0.4420 c6         1 OZY       0.115100
     19 C21          4.9030    -3.3760     0.0200 c6         1 OZY       0.083100
     20 O21          5.7680    -2.9810     1.0640 oh         1 OZY      -0.595800
     21 O22          3.0860    -2.6960    -1.4040 os         1 OZY      -0.445600
     22 C18          2.2200    -3.7060    -0.9660 c6         1 OZY       0.343900
     23 C19          3.0110    -4.9270    -0.5000 c6         1 OZY       0.157500
     24 N23          2.1210    -5.9450     0.0300 n8         1 OZY      -0.861800
     25 C20          4.0380    -4.5160     0.5470 c6         1 OZY       0.149100
     26 O20          4.8170    -5.6510     0.8520 oh         1 OZY      -0.616800
     27 O18          1.3990    -3.2820     0.0760 os         1 OZY      -0.392600
     28 C15          0.4310    -2.3180    -0.2570 c5         1 OZY       0.110100
     29 C14         -0.8970    -2.9080    -0.7800 c5         1 OZY       0.079100
     30 O14         -0.7800    -4.2690    -1.0970 oh         1 OZY      -0.594800
     31 C16          0.0210    -1.5800     1.0270 c5         1 OZY       0.139100
     32 C17          0.6730    -0.2250     1.1590 c3         1 OZY       0.181400
     33 O17          0.3110     0.3720     2.3660 oh         1 OZY      -0.683800
     34 O16         -1.3830    -1.4540     0.9700 os         1 OZY      -0.375600
     35 C13         -1.8740    -2.6190     0.3600 c5         1 OZY       0.318900
     36 O11         -3.1390    -2.4260    -0.1470 os         1 OZY      -0.394600
     37 C11         -4.1830    -2.1910     0.7700 c6         1 OZY       0.159100
     38 C12         -5.0660    -3.4240     0.8770 c6         1 OZY       0.134100
     39 O12         -4.3040    -4.5140     1.3300 oh         1 OZY      -0.587800
     40 C10         -4.9840    -0.9800     0.2760 c6         1 OZY       0.170100
     41 C9          -6.1800    -0.7120     1.1980 c6         1 OZY       0.144500
     42 N9          -7.0120     0.3570     0.6720 n8         1 OZY      -0.905800
     43 C8          -7.0360    -1.9700     1.3260 c6         1 OZY      -0.105400
     44 C7          -6.2360    -3.1650     1.8210 c6         1 OZY       0.110500
     45 N7          -6.9780    -4.4090     1.9650 n8         1 OZY      -0.904800
     46 O1          -4.0880     0.1060     0.2230 os         1 OZY      -0.391600
     47 C1          -4.1590     1.0110    -0.8300 c6         1 OZY       0.359900
     48 O5          -4.7890     2.2040    -0.4380 os         1 OZY      -0.464600
     49 C5          -4.1470     2.8900     0.6270 c6         1 OZY       0.139100
     50 C6          -4.9760     4.1330     0.9030 c3         1 OZY       0.151800
     51 N6          -6.3530     3.7920     1.2240 n8         1 OZY      -0.896800
     52 C4          -2.6960     3.2380     0.2840 c6         1 OZY       0.134100
     53 O4          -2.1240     3.7600     1.4540 oh         1 OZY      -0.682800
     54 C3          -1.9360     2.0260    -0.2760 c6         1 OZY       0.139100
     55 O3          -0.7190     2.4010    -0.8750 oh         1 OZY      -0.701800
     56 C2          -2.7710     1.3610    -1.3650 c6         1 OZY       0.141500
     57 N2          -2.0940     0.2060    -1.9160 n8         1 OZY      -0.870800
     58 H3           4.0990     2.1340     0.1620 h1         1 OZY       0.032700
     59 H4           2.3900     1.7990     0.1720 h1         1 OZY       0.032700
     60 H5           1.5990     4.4970    -1.2240 h4         1 OZY       0.087100
     61 H6           4.0190     2.2110    -5.6540 ho         1 OZY       0.409000
     62 H7           2.0420     3.1780    -6.1840 hc         1 OZY       0.029367
     63 H8           1.7460     4.8210    -5.6360 hc         1 OZY       0.029367
     64 H9           3.3740     4.3270    -6.0740 hc         1 OZY       0.029367
     65 H10          5.2310     0.7400    -2.9790 h1         1 OZY       0.031200
     66 H11          5.3990     1.4620    -1.3960 h1         1 OZY       0.031200
     67 H12          3.2000    -0.3240    -2.0830 hn         1 OZY       0.369800
     68 H14          5.3430    -1.5170    -1.9770 h1         1 OZY       0.020700
     69 H15          5.5510    -0.7350    -0.4130 h1         1 OZY       0.020700
     70 H16          3.4900    -1.8000     0.4270 h1         1 OZY       0.104700
     71 H17          5.4730    -3.7470    -0.8440 h1         1 OZY       0.029700
     72 H18          6.5750    -2.6210     0.6860 ho         1 OZY       0.403000
     73 H19          1.6310    -3.9700    -1.8510 h2         1 OZY       0.066700
     74 H20          3.5660    -5.2690    -1.3890 h1         1 OZY       0.017700
     75 H21          1.3340    -6.0690    -0.5940 hn         1 OZY       0.341800
     76 H22          2.6060    -6.8320     0.0500 hn         1 OZY       0.341800
     77 H24          3.5030    -4.1640     1.4420 h1         1 OZY       0.089700
     78 H25          5.4780    -5.3900     1.5020 ho         1 OZY       0.411000
     79 H26          0.8340    -1.6070    -0.9860 h1         1 OZY       0.072700
     80 H27         -1.2220    -2.3140    -1.6400 h1         1 OZY       0.068700
     81 H28         -1.5160    -4.5030    -1.6700 ho         1 OZY       0.395000
     82 H29          0.3130    -2.2080     1.8840 h1         1 OZY       0.053700
     83 H30          1.7620    -0.3910     1.0820 h1         1 OZY       0.010700
     84 H31          0.3940     0.3800     0.2850 h1         1 OZY       0.010700
     85 H32          0.8070     1.2380     2.4370 ho         1 OZY       0.518000
     86 H33         -1.8560    -3.4530     1.0860 h2         1 OZY       0.040700
     87 H34         -3.7850    -1.9590     1.7680 h1         1 OZY       0.082700
     88 H35         -5.4820    -3.6360    -0.1250 h1         1 OZY       0.026700
     89 H36         -4.9580    -5.1360     1.6840 ho         1 OZY       0.414000
     90 H37         -5.3740    -1.1990    -0.7300 h1         1 OZY       0.038700
     91 H38         -5.7710    -0.4760     2.1960 h1         1 OZY       0.039700
     92 H39         -7.8090     0.4750     1.2860 hn         1 OZY       0.355800
     93 H40         -6.5170     1.2400     0.7030 hn         1 OZY       0.355800
     94 H42         -7.8650    -1.7720     2.0110 hc         1 OZY       0.036200
     95 H43         -7.4810    -2.2030     0.3510 hc         1 OZY       0.036200
     96 H44         -5.8240    -2.9280     2.8090 h1         1 OZY       0.073700
     97 H45         -7.6070    -4.3550     2.7550 hn         1 OZY       0.337300
     98 H46         -7.5580    -4.5650     1.1470 hn         1 OZY       0.337300
     99 H48         -4.7790     0.6070    -1.6410 h2         1 OZY       0.036700
    100 H49         -4.1520     2.2640     1.5310 h1         1 OZY       0.068700
    101 H50         -4.5380     4.6430     1.7620 h1         1 OZY       0.044700
    102 H51         -4.8800     4.8190     0.0480 h1         1 OZY       0.044700
    103 H52         -6.8220     4.6080     1.5950 hn         1 OZY       0.321300
    104 H53         -6.8510     3.5580     0.3760 hn         1 OZY       0.321300
    105 H55         -2.7140     3.9940    -0.5240 h1         1 OZY       0.009700
    106 H56         -1.1420     3.8470     1.3330 ho         1 OZY       0.517000
    107 H57         -1.7720     1.3030     0.5360 h1         1 OZY       0.085700
    108 H58         -0.1570     2.8670    -0.2080 ho         1 OZY       0.506000
    109 H59         -2.9560     2.1350    -2.1310 h1         1 OZY       0.020700
    110 H60         -2.5030    -0.0290    -2.8120 hn         1 OZY       0.332800
    111 H61         -1.1330     0.4590    -2.1040 hn         1 OZY       0.332800
@<TRIPOS>BOND
     1     1     2 1   
     2     2     3 1   
     3     2     4 1   
     4     2     5 1   
     5     5     6 1   
     6     6     7 1   
     7     6    58 1   
     8     6    59 1   
     9     7     8 ar  
    10     7    10 ar  
    11     8     9 ar  
    12     8    60 1   
    13     9    13 ar  
    14    10    11 ar  
    15    10    15 1   
    16    11    12 1   
    17    11    13 ar  
    18    12    61 1   
    19    13    14 1   
    20    14    62 1   
    21    14    63 1   
    22    14    64 1   
    23    15    16 1   
    24    15    65 1   
    25    15    66 1   
    26    16    17 1   
    27    16    67 1   
    28    17    18 1   
    29    17    68 1   
    30    17    69 1   
    31    18    19 1   
    32    18    21 1   
    33    18    70 1   
    34    19    20 1   
    35    19    25 1   
    36    19    71 1   
    37    20    72 1   
    38    21    22 1   
    39    22    23 1   
    40    22    27 1   
    41    22    73 1   
    42    23    24 1   
    43    23    25 1   
    44    23    74 1   
    45    24    75 1   
    46    24    76 1   
    47    25    26 1   
    48    25    77 1   
    49    26    78 1   
    50    27    28 1   
    51    28    29 1   
    52    28    31 1   
    53    28    79 1   
    54    29    30 1   
    55    29    35 1   
    56    29    80 1   
    57    30    81 1   
    58    31    32 1   
    59    31    34 1   
    60    31    82 1   
    61    32    33 1   
    62    32    83 1   
    63    32    84 1   
    64    33    85 1   
    65    34    35 1   
    66    35    36 1   
    67    35    86 1   
    68    36    37 1   
    69    37    38 1   
    70    37    40 1   
    71    37    87 1   
    72    38    39 1   
    73    38    44 1   
    74    38    88 1   
    75    39    89 1   
    76    40    41 1   
    77    40    46 1   
    78    40    90 1   
    79    41    42 1   
    80    41    43 1   
    81    41    91 1   
    82    42    92 1   
    83    42    93 1   
    84    43    44 1   
    85    43    94 1   
    86    43    95 1   
    87    44    45 1   
    88    44    96 1   
    89    45    97 1   
    90    45    98 1   
    91    46    47 1   
    92    47    48 1   
    93    47    56 1   
    94    47    99 1   
    95    48    49 1   
    96    49    50 1   
    97    49    52 1   
    98    49   100 1   
    99    50    51 1   
   100    50   101 1   
   101    50   102 1   
   102    51   103 1   
   103    51   104 1   
   104    52    53 1   
   105    52    54 1   
   106    52   105 1   
   107    53   106 1   
   108    54    55 1   
   109    54    56 1   
   110    54   107 1   
   111    55   108 1   
   112    56    57 1   
   113    56   109 1   
   114    57   110 1   
   115    57   111 1   
@<TRIPOS>SUBSTRUCTURE
     1 OZY         1 TEMP              0 ****  ****    0 ROOT
