@<TRIPOS>MOLECULE
OZY
  111   115     1     0     0
SMALL
No Charge or Current Charge


@<TRIPOS>ATOM
      1 O3P          0.0160     3.9650     0.3290 o          1 OZY      -0.883833
      2 P1P          1.3880     4.1030     0.8860 p5         1 OZY       1.332900
      3 O1P          1.5610     5.4560     1.4730 o          1 OZY      -0.883833
      4 O2P          1.5910     3.0600     1.9240 o          1 OZY      -0.883833
      5 O4P          2.4540     3.9020    -0.2930 os         1 OZY      -0.590400
      6 C5A          2.5530     2.6030    -0.8790 c3         1 OZY       0.275900
      7 C5P          3.1520     2.7130    -2.2770 ca         1 OZY      -0.048300
      8 C6P          2.5110     3.5760    -3.1880 ca         1 OZY       0.348900
      9 N1P          2.9110     3.7450    -4.4720 nb         1 OZY      -0.656000
     10 C4P          4.2790     1.9630    -2.7140 ca         1 OZY      -0.114300
     11 CPP          4.6980     2.1400    -4.0570 ca         1 OZY       0.063100
     12 OPP          5.7820     1.4480    -4.5440 oh         1 OZY      -0.560100
     13 C2P          3.9830     3.0400    -4.8940 ca         1 OZY       0.226300
     14 C2A          4.3870     3.2710    -6.3470 c3         1 OZY      -0.133400
     15 C4A          5.0320     1.0160    -1.7720 c3         1 OZY       0.218100
     16 N19          4.2130    -0.1520    -1.4040 n7         1 OZY      -0.840400
     17 C23          4.9320    -1.2040    -0.6510 c3         1 OZY       0.173800
     18 C22          4.0010    -2.3510    -0.1460 c6         1 OZY       0.138300
     19 C21          4.7730    -3.5480     0.4940 c6         1 OZY       0.106300
     20 O21          5.5500    -3.1450     1.6440 oh         1 OZY      -0.718000
     21 O22          3.2110    -2.8250    -1.2740 os         1 OZY      -0.492000
     22 C18          2.1840    -3.7890    -0.9310 c6         1 OZY       0.390300
     23 C19          2.8620    -5.0710    -0.3100 c6         1 OZY       0.157500
     24 N23          1.9170    -6.1790     0.0620 n8         1 OZY      -0.972200
     25 C20          3.7510    -4.6510     0.9070 c6         1 OZY       0.172300
     26 O20          4.4570    -5.7820     1.4640 oh         1 OZY      -0.679000
     27 O18          1.2590    -3.1660    -0.0080 os         1 OZY      -0.439000
     28 C15          0.5720    -1.9720    -0.4790 c5         1 OZY       0.133300
     29 C14         -0.7850    -2.3300    -1.1830 c5         1 OZY       0.102300
     30 O14         -0.7770    -3.5140    -2.0130 oh         1 OZY      -0.717000
     31 C16          0.1120    -1.2040     0.8100 c5         1 OZY       0.162300
     32 C17          0.6750     0.2410     0.9000 c3         1 OZY       0.204600
     33 O17          0.5320     0.8210     2.2060 oh         1 OZY      -0.806000
     34 O16         -1.3340    -1.1890     0.7570 os         1 OZY      -0.422000
     35 C13         -1.7380    -2.3670     0.0490 c5         1 OZY       0.365300
     36 O11         -3.0730    -2.1530    -0.4480 os         1 OZY      -0.441000
     37 C11         -4.1450    -2.1980     0.5260 c6         1 OZY       0.182300
     38 C12         -4.9160    -3.5500     0.4650 c6         1 OZY       0.157300
     39 O12         -4.1100    -4.7110     0.6840 oh         1 OZY      -0.710000
     40 C10         -5.1290    -1.0100     0.2860 c6         1 OZY       0.193300
     41 C9          -6.3350    -1.0640     1.3040 c6         1 OZY       0.144500
     42 N9          -7.3360     0.0100     1.0900 n8         1 OZY      -1.016200
     43 C8          -7.0520    -2.4440     1.2840 c6         1 OZY      -0.105400
     44 C7          -6.0340    -3.5790     1.5360 c6         1 OZY       0.110500
     45 N7          -6.6710    -4.9230     1.5630 n8         1 OZY      -1.015200
     46 O1          -4.3910     0.2360     0.3900 os         1 OZY      -0.438000
     47 C1          -4.9530     1.3810    -0.2840 c6         1 OZY       0.406300
     48 O5          -5.4020     2.3270     0.7100 os         1 OZY      -0.511000
     49 C5          -4.3390     2.8500     1.5610 c6         1 OZY       0.162300
     50 C6          -4.9960     3.8270     2.5950 c3         1 OZY       0.151800
     51 N6          -6.1060     3.2490     3.4020 n8         1 OZY      -1.007200
     52 C4          -3.2150     3.5580     0.7190 c6         1 OZY       0.157300
     53 O4          -2.1490     4.0100     1.5890 oh         1 OZY      -0.805000
     54 C3          -2.7030     2.5980    -0.4180 c6         1 OZY       0.162300
     55 O3          -1.7570     3.2570    -1.3030 oh         1 OZY      -0.764000
     56 C2          -3.9170     2.0670    -1.2470 c6         1 OZY       0.141500
     57 N2          -3.4620     1.2320    -2.4080 n8         1 OZY      -0.981200
     58 H3           3.1570     1.9560    -0.2340 h1         1 OZY       0.032700
     59 H4           1.5610     2.1440    -0.9780 h1         1 OZY       0.032700
     60 H5           1.6370     4.1510    -2.8790 h4         1 OZY       0.087100
     61 H6           5.9190     1.6940    -5.4840 ho         1 OZY       0.448000
     62 H7           4.3390     2.3380    -6.9200 hc         1 OZY       0.029367
     63 H8           3.7320     3.9950    -6.8470 hc         1 OZY       0.029367
     64 H9           5.4110     3.6580    -6.4130 hc         1 OZY       0.029367
     65 H10          5.9670     0.6780    -2.2380 h1         1 OZY       0.031200
     66 H11          5.3220     1.5710    -0.8700 h1         1 OZY       0.031200
     67 H12          3.8680    -0.5900    -2.2660 hn         1 OZY       0.425000
     68 H14          5.7170    -1.6430    -1.2820 h1         1 OZY       0.020700
     69 H15          5.4240    -0.7590     0.2240 h1         1 OZY       0.020700
     70 H16          3.3310    -1.9110     0.6070 h1         1 OZY       0.104700
     71 H17          5.4410    -3.9690    -0.2720 h1         1 OZY       0.029700
     72 H18          6.3920    -2.7540     1.3120 ho         1 OZY       0.502000
     73 H19          1.6510    -4.0830    -1.8470 h2         1 OZY       0.066700
     74 H20          3.5320    -5.4960    -1.0720 h1         1 OZY       0.017700
     75 H21          1.6980    -6.7260    -0.7780 hn         1 OZY       0.397000
     76 H22          2.4470    -6.8350     0.6490 hn         1 OZY       0.397000
     77 H24          3.0860    -4.2190     1.6710 h1         1 OZY       0.089700
     78 H25          5.1750    -5.3780     2.0030 ho         1 OZY       0.450000
     79 H26          1.2290    -1.3630    -1.1140 h1         1 OZY       0.072700
     80 H27         -1.0780    -1.4710    -1.8040 h1         1 OZY       0.068700
     81 H28         -1.7200    -3.7270    -2.2020 ho         1 OZY       0.494000
     82 H29          0.4190    -1.7540     1.7110 h1         1 OZY       0.053700
     83 H30          1.7400     0.2090     0.6360 h1         1 OZY       0.010700
     84 H31          0.1670     0.8630     0.1510 h1         1 OZY       0.010700
     85 H32          0.9590     1.7560     2.1270 ho         1 OZY       0.617000
     86 H33         -1.6400    -3.2770     0.6560 h2         1 OZY       0.040700
     87 H34         -3.7210    -2.0800     1.5350 h1         1 OZY       0.082700
     88 H35         -5.3890    -3.6260    -0.5260 h1         1 OZY       0.026700
     89 H36         -4.7820    -5.3200     1.0910 ho         1 OZY       0.513000
     90 H37         -5.5190    -1.1030    -0.7380 h1         1 OZY       0.038700
     91 H38         -5.9210    -0.9080     2.3120 h1         1 OZY       0.039700
     92 H39         -7.9420     0.0670     1.9150 hn         1 OZY       0.411000
     93 H40         -6.8280     0.9080     1.1020 hn         1 OZY       0.411000
     94 H42         -7.8350    -2.4690     2.0540 hc         1 OZY       0.036200
     95 H43         -7.5520    -2.5940     0.3160 hc         1 OZY       0.036200
     96 H44         -5.5700    -3.4200     2.5240 h1         1 OZY       0.073700
     97 H45         -7.3130    -4.9710     2.3650 hn         1 OZY       0.392500
     98 H46         -7.3040    -5.0070     0.7570 hn         1 OZY       0.392500
     99 H48         -5.8180     1.0690    -0.8890 h2         1 OZY       0.036700
    100 H49         -3.8920     2.0160     2.1220 h1         1 OZY       0.068700
    101 H50         -4.2220     4.1900     3.2860 h1         1 OZY       0.044700
    102 H51         -5.3850     4.6960     2.0450 h1         1 OZY       0.044700
    103 H52         -6.5690     4.0030     3.9220 hn         1 OZY       0.376500
    104 H53         -6.8260     2.9190     2.7500 hn         1 OZY       0.376500
    105 H55         -3.6690     4.4340     0.2310 h1         1 OZY       0.009700
    106 H56         -1.2700     4.0050     1.0610 ho         1 OZY       0.616000
    107 H57         -2.2220     1.7310     0.0630 h1         1 OZY       0.085700
    108 H58         -0.9770     3.5430    -0.7180 ho         1 OZY       0.545000
    109 H59         -4.4100     2.9440    -1.6930 h1         1 OZY       0.020700
    110 H60         -4.0860     1.4030    -3.2030 hn         1 OZY       0.388000
    111 H61         -2.5700     1.6420    -2.7090 hn         1 OZY       0.388000
@<TRIPOS>BOND
     1     1     2 1   
     2     2     3 1   
     3     2     4 1   
     4     2     5 1   
     5     5     6 1   
     6     6     7 1   
     7     6    58 1   
     8     6    59 1   
     9     7     8 ar  
    10     7    10 ar  
    11     8     9 ar  
    12     8    60 1   
    13     9    13 ar  
    14    10    11 ar  
    15    10    15 1   
    16    11    12 1   
    17    11    13 ar  
    18    12    61 1   
    19    13    14 1   
    20    14    62 1   
    21    14    63 1   
    22    14    64 1   
    23    15    16 1   
    24    15    65 1   
    25    15    66 1   
    26    16    17 1   
    27    16    67 1   
    28    17    18 1   
    29    17    68 1   
    30    17    69 1   
    31    18    19 1   
    32    18    21 1   
    33    18    70 1   
    34    19    20 1   
    35    19    25 1   
    36    19    71 1   
    37    20    72 1   
    38    21    22 1   
    39    22    23 1   
    40    22    27 1   
    41    22    73 1   
    42    23    24 1   
    43    23    25 1   
    44    23    74 1   
    45    24    75 1   
    46    24    76 1   
    47    25    26 1   
    48    25    77 1   
    49    26    78 1   
    50    27    28 1   
    51    28    29 1   
    52    28    31 1   
    53    28    79 1   
    54    29    30 1   
    55    29    35 1   
    56    29    80 1   
    57    30    81 1   
    58    31    32 1   
    59    31    34 1   
    60    31    82 1   
    61    32    33 1   
    62    32    83 1   
    63    32    84 1   
    64    33    85 1   
    65    34    35 1   
    66    35    36 1   
    67    35    86 1   
    68    36    37 1   
    69    37    38 1   
    70    37    40 1   
    71    37    87 1   
    72    38    39 1   
    73    38    44 1   
    74    38    88 1   
    75    39    89 1   
    76    40    41 1   
    77    40    46 1   
    78    40    90 1   
    79    41    42 1   
    80    41    43 1   
    81    41    91 1   
    82    42    92 1   
    83    42    93 1   
    84    43    44 1   
    85    43    94 1   
    86    43    95 1   
    87    44    45 1   
    88    44    96 1   
    89    45    97 1   
    90    45    98 1   
    91    46    47 1   
    92    47    48 1   
    93    47    56 1   
    94    47    99 1   
    95    48    49 1   
    96    49    50 1   
    97    49    52 1   
    98    49   100 1   
    99    50    51 1   
   100    50   101 1   
   101    50   102 1   
   102    51   103 1   
   103    51   104 1   
   104    52    53 1   
   105    52    54 1   
   106    52   105 1   
   107    53   106 1   
   108    54    55 1   
   109    54    56 1   
   110    54   107 1   
   111    55   108 1   
   112    56    57 1   
   113    56   109 1   
   114    57   110 1   
   115    57   111 1   
@<TRIPOS>SUBSTRUCTURE
     1 OZY         1 TEMP              0 ****  ****    0 ROOT
