@<TRIPOS>MOLECULE
OZZ
   50    52     1     0     0
SMALL
No Charge or Current Charge


@<TRIPOS>ATOM
      1 C1          -3.2750     1.8760     1.4470 c5         1 OZZ       0.095300
      2 C2          -4.2720     0.8750     0.7970 c5         1 OZZ       0.092300
      3 C3          -3.4640     0.4060    -0.4830 c5         1 OZZ       0.452500
      4 O4          -2.3990     1.3630    -0.6790 os         1 OZZ      -0.435000
      5 C5          -2.6470     2.5010     0.1630 c5         1 OZZ       0.202500
      6 C6          -1.2870     3.1140     0.4720 c2         1 OZZ      -0.239200
      7 N7          -2.8530    -0.9460    -0.4790 na         1 OZZ      -0.523200
      8 O8          -3.9710     2.8230     2.2830 oh         1 OZZ      -0.706000
      9 O9          -5.4840     1.5910     0.4960 oh         1 OZZ      -0.708000
     10 C10         -0.5520     3.6400    -0.5260 c2         1 OZZ      -0.211200
     11 C11          0.8800     4.0980    -0.3900 c3         1 OZZ       0.135200
     12 N12          1.6970     2.9190    -0.1190 ns         1 OZZ      -0.507900
     13 C13          2.2570     2.1140    -1.0860 c          1 OZZ       0.625700
     14 C14          2.6880     0.7510    -0.6060 ca         1 OZZ      -0.190600
     15 C15          3.7770     0.0700    -1.1910 ca         1 OZZ       0.219100
     16 C16          4.1430    -1.2170    -0.7440 ca         1 OZZ       0.027100
     17 C17          3.4200    -1.8410     0.2860 ca         1 OZZ      -0.086000
     18 C18          2.3220    -1.1790     0.8820 ca         1 OZZ      -0.193200
     19 C19          1.9650     0.1120     0.4300 ca         1 OZZ      -0.015000
     20 N20          1.5340    -1.8400     1.9750 no         1 OZZ       0.703200
     21 O21          4.5370     0.6340    -2.1730 oh         1 OZZ      -0.492100
     22 O22          5.2160    -1.8560    -1.3210 oh         1 OZZ      -0.552100
     23 O23          2.3080     2.4630    -2.2580 o          1 OZZ      -0.565100
     24 O24          1.8050    -3.0130     2.2640 o          1 OZZ      -0.398000
     25 O25          0.6570    -1.1800     2.5470 o          1 OZZ      -0.398000
     26 C26         -2.8720    -1.6940    -1.6860 cc         1 OZZ       0.027000
     27 C27         -2.3490    -2.9660    -1.6590 cd         1 OZZ      -0.354700
     28 C28         -1.7690    -3.5980    -0.5060 c          1 OZZ       0.574500
     29 C29         -2.2730    -1.4740     0.7070 cc         1 OZZ       0.027000
     30 C30         -1.7740    -2.7540     0.6580 cd         1 OZZ      -0.354700
     31 O31         -1.3170    -4.7330    -0.5140 o          1 OZZ      -0.571100
     32 H1          -2.5120     1.3370     2.0260 h1         1 OZZ       0.060700
     33 H2          -4.4860     0.0310     1.4660 h1         1 OZZ       0.074700
     34 H3          -4.1440     0.4370    -1.3450 h2         1 OZZ       0.105700
     35 H5          -3.3320     3.1960    -0.3450 h1         1 OZZ       0.087700
     36 H6          -0.8700     3.0520     1.4790 ha         1 OZZ       0.182000
     37 HO8         -3.2900     3.3750     2.7400 ho         1 OZZ       0.520000
     38 HO9         -5.4590     2.3330     1.1560 ho         1 OZZ       0.530000
     39 H10         -0.9360     3.6750    -1.5480 ha         1 OZZ       0.205000
     40 H11          1.2210     4.5950    -1.3090 h1         1 OZZ       0.064200
     41 H11A         0.9790     4.8070     0.4430 h1         1 OZZ       0.064200
     42 HN12         1.7290     2.5740     0.8310 hn         1 OZZ       0.318500
     43 H17          3.7120    -2.8350     0.6220 ha         1 OZZ       0.155000
     44 H19          1.0960     0.6060     0.8640 ha         1 OZZ       0.152000
     45 HO21         5.2200    -0.0390    -2.3890 ho         1 OZZ       0.497000
     46 HO22         5.3390    -2.7370    -0.9010 ho         1 OZZ       0.489000
     47 H26         -3.3030    -1.2340    -2.5740 h4         1 OZZ       0.198000
     48 H27         -2.3450    -3.5840    -2.5480 ha         1 OZZ       0.208000
     49 H29         -2.2460    -0.8550     1.6000 h4         1 OZZ       0.198000
     50 H30         -1.3310    -3.2110     1.5330 ha         1 OZZ       0.208000
@<TRIPOS>BOND
     1     1     2 1   
     2     1     5 1   
     3     1     8 1   
     4     1    32 1   
     5     2     3 1   
     6     2     9 1   
     7     2    33 1   
     8     3     4 1   
     9     3     7 1   
    10     3    34 1   
    11     4     5 1   
    12     5     6 1   
    13     5    35 1   
    14     6    10 2   
    15     6    36 1   
    16     7    26 1   
    17     7    29 1   
    18     8    37 1   
    19     9    38 1   
    20    10    11 1   
    21    10    39 1   
    22    11    12 1   
    23    11    40 1   
    24    11    41 1   
    25    12    13 1   
    26    12    42 1   
    27    13    14 1   
    28    13    23 2   
    29    14    15 ar  
    30    14    19 ar  
    31    15    16 ar  
    32    15    21 1   
    33    16    17 ar  
    34    16    22 1   
    35    17    18 ar  
    36    17    43 1   
    37    18    19 ar  
    38    18    20 1   
    39    19    44 1   
    40    20    24 1   
    41    20    25 1   
    42    21    45 1   
    43    22    46 1   
    44    26    27 2   
    45    26    47 1   
    46    27    28 1   
    47    27    48 1   
    48    28    30 1   
    49    28    31 2   
    50    29    30 2   
    51    29    49 1   
    52    30    50 1   
@<TRIPOS>SUBSTRUCTURE
     1 OZZ         1 TEMP              0 ****  ****    0 ROOT
