@<TRIPOS>MOLECULE
OZZ
   50    52     1     0     0
SMALL
abcg2


@<TRIPOS>ATOM
      1 C1          -3.6890     2.0680     1.2680 c5         1 OZZ       0.095300
      2 C2          -4.7530     1.1780     0.6150 c5         1 OZZ       0.092300
      3 C3          -4.0720     0.7940    -0.7030 c5         1 OZZ       0.452500
      4 O4          -3.1620     1.8050    -1.0030 os         1 OZZ      -0.435000
      5 C5          -3.0710     2.7580     0.0450 c5         1 OZZ       0.202500
      6 C6          -1.6660     3.2060     0.2610 c2         1 OZZ      -0.239200
      7 N7          -3.3840    -0.5030    -0.6410 na         1 OZZ      -0.523200
      8 O8          -4.2090     3.0240     2.1440 oh         1 OZZ      -0.706000
      9 O9          -5.8940     1.9240     0.2930 oh         1 OZZ      -0.708000
     10 C10         -0.6110     2.8360    -0.4540 c2         1 OZZ      -0.211200
     11 C11          0.7810     3.3250    -0.1860 c3         1 OZZ       0.135200
     12 N12          1.6980     2.2320     0.0720 ns         1 OZZ      -0.507900
     13 C13          2.2560     1.5110    -0.9110 c          1 OZZ       0.625700
     14 C14          3.0770     0.3480    -0.4460 ca         1 OZZ      -0.190600
     15 C15          4.3580     0.1500    -0.9590 ca         1 OZZ       0.219100
     16 C16          5.0990    -0.9780    -0.5570 ca         1 OZZ       0.027100
     17 C17          4.5610    -1.8880     0.3230 ca         1 OZZ      -0.086000
     18 C18          3.2770    -1.6730     0.8170 ca         1 OZZ      -0.193200
     19 C19          2.5370    -0.5650     0.4510 ca         1 OZZ      -0.015000
     20 N20          2.7090    -2.6340     1.7350 no         1 OZZ       0.703200
     21 O21          4.8720     1.0440    -1.7980 oh         1 OZZ      -0.492100
     22 O22          6.3290    -1.0760    -1.0920 oh         1 OZZ      -0.552100
     23 O23          2.1040     1.7550    -2.0970 o          1 OZZ      -0.565100
     24 O24          3.3830    -3.5880     2.0500 o          1 OZZ      -0.398000
     25 O25          1.5870    -2.4400     2.1470 o          1 OZZ      -0.398000
     26 C26         -4.0300    -1.6050    -1.1050 cc         1 OZZ       0.027000
     27 C27         -3.5030    -2.8470    -1.0140 cd         1 OZZ      -0.354700
     28 C28         -2.2070    -3.0790    -0.4130 c          1 OZZ       0.574500
     29 C29         -2.1620    -0.6540    -0.0690 cc         1 OZZ       0.027000
     30 C30         -1.5710    -1.8650     0.0550 cd         1 OZZ      -0.354700
     31 O31         -1.6930    -4.1970    -0.3130 o          1 OZZ      -0.571100
     32 H1          -2.9390     1.4410     1.7650 h1         1 OZZ       0.060700
     33 H2          -4.9990     0.2960     1.2180 h1         1 OZZ       0.074700
     34 H3          -4.8120     0.6970    -1.5010 h2         1 OZZ       0.105700
     35 H5          -3.6850     3.6360    -0.2040 h1         1 OZZ       0.087700
     36 H6          -1.5460     3.9100     1.0810 ha         1 OZZ       0.182000
     37 HO8         -4.2900     2.6350     3.0210 ho         1 OZZ       0.520000
     38 HO9         -6.0360     2.5660     1.0000 ho         1 OZZ       0.530000
     39 H10         -0.7210     2.1510    -1.2880 ha         1 OZZ       0.205000
     40 H11          1.1520     3.8960    -1.0390 h1         1 OZZ       0.064200
     41 H11A         0.8000     3.9870     0.6790 h1         1 OZZ       0.064200
     42 HN12         1.8750     1.9830     1.0320 hn         1 OZZ       0.318500
     43 H17          5.1370    -2.7530     0.6250 ha         1 OZZ       0.155000
     44 H19          1.5440    -0.4070     0.8450 ha         1 OZZ       0.152000
     45 HO21         5.7770     0.8090    -2.0450 ho         1 OZZ       0.497000
     46 HO22         6.8070    -1.8380    -0.7460 ho         1 OZZ       0.489000
     47 H26         -4.9960    -1.4300    -1.5590 h4         1 OZZ       0.198000
     48 H27         -4.0670    -3.6800    -1.4100 ha         1 OZZ       0.208000
     49 H29         -1.6660     0.2420     0.2770 h4         1 OZZ       0.198000
     50 H30         -0.5980    -1.9250     0.5240 ha         1 OZZ       0.208000
@<TRIPOS>BOND
     1     1     2 1   
     2     1     5 1   
     3     1     8 1   
     4     1    32 1   
     5     2     3 1   
     6     2     9 1   
     7     2    33 1   
     8     3     4 1   
     9     3     7 1   
    10     3    34 1   
    11     4     5 1   
    12     5     6 1   
    13     5    35 1   
    14     6    10 2   
    15     6    36 1   
    16     7    26 1   
    17     7    29 1   
    18     8    37 1   
    19     9    38 1   
    20    10    11 1   
    21    10    39 1   
    22    11    12 1   
    23    11    40 1   
    24    11    41 1   
    25    12    13 1   
    26    12    42 1   
    27    13    14 1   
    28    13    23 2   
    29    14    15 ar  
    30    14    19 ar  
    31    15    16 ar  
    32    15    21 1   
    33    16    17 ar  
    34    16    22 1   
    35    17    18 ar  
    36    17    43 1   
    37    18    19 ar  
    38    18    20 1   
    39    19    44 1   
    40    20    24 1   
    41    20    25 1   
    42    21    45 1   
    43    22    46 1   
    44    26    27 2   
    45    26    47 1   
    46    27    28 1   
    47    27    48 1   
    48    28    30 1   
    49    28    31 2   
    50    29    30 2   
    51    29    49 1   
    52    30    50 1   
@<TRIPOS>SUBSTRUCTURE
     1 OZZ         1 TEMP              0 ****  ****    0 ROOT
