@<TRIPOS>MOLECULE
L01
   80    82     1     0     0
SMALL
No Charge or Current Charge


@<TRIPOS>ATOM
      1 C1          -7.0740    -0.5350     0.3170 c3         1 L01      -0.090600
      2 C2          -6.3200     0.3660     1.3130 c3         1 L01      -0.099900
      3 C3          -4.8230     0.5250     0.9620 c3         1 L01       0.099000
      4 N4          -4.0800     1.4710     1.8380 n          1 L01      -0.405800
      5 C5          -3.9790     1.1060     3.2800 c3         1 L01       0.099000
      6 C6          -3.2120    -0.2120     3.5340 c3         1 L01      -0.099900
      7 C7          -2.8600    -0.4290     5.0190 c3         1 L01      -0.090600
      8 C8          -3.9300     2.8210     1.4230 c          1 L01       0.614700
      9 O9          -4.5730     3.2600     0.4760 o          1 L01      -0.591100
     10 C10         -2.8800     3.6920     2.0890 ca         1 L01      -0.151600
     11 C11         -3.0510     5.0920     2.0980 ca         1 L01      -0.049000
     12 C12         -2.0820     5.9240     2.6810 ca         1 L01      -0.127000
     13 C13         -0.9300     5.3720     3.2600 ca         1 L01      -0.043000
     14 C14         -0.7260     3.9760     3.2560 ca         1 L01      -0.156600
     15 C15         -1.6980     3.1480     2.6430 ca         1 L01      -0.065000
     16 C16          0.5140     3.4050     3.9090 c          1 L01       0.624700
     17 O17          1.4730     4.1030     4.2090 o          1 L01      -0.597100
     18 N18          0.5020     2.0440     4.1380 ns         1 L01      -0.493900
     19 C19          1.5490     1.2870     4.8470 c3         1 L01       0.076700
     20 C21          1.1500     1.0530     6.3290 c3         1 L01      -0.046100
     21 C22          0.8860     2.3490     7.0880 ca         1 L01      -0.083300
     22 C23          1.9590     3.0880     7.6250 ca         1 L01      -0.103000
     23 C24          1.7190     4.2890     8.3150 ca         1 L01      -0.106000
     24 C25          0.4040     4.7590     8.4720 ca         1 L01      -0.107000
     25 C26         -0.6700     4.0280     7.9390 ca         1 L01      -0.106000
     26 C27         -0.4310     2.8260     7.2510 ca         1 L01      -0.103000
     27 C28          1.9370    -0.0250     4.0910 c3         1 L01       0.161300
     28 O30          2.3430     0.2890     2.7390 oh         1 L01      -0.655000
     29 C31          0.7930    -1.0870     4.0540 c3         1 L01       0.166800
     30 N32          1.1590    -2.2480     3.2160 n7         1 L01      -0.865400
     31 C35          0.0440    -3.1500     2.8790 c3         1 L01       0.206100
     32 C36          0.5070    -4.2500     1.9330 ca         1 L01      -0.053300
     33 C37          1.0830    -5.4300     2.4410 ca         1 L01      -0.126000
     34 C38          1.5070    -6.4470     1.5690 ca         1 L01      -0.078000
     35 C39          1.3580    -6.2920     0.1800 ca         1 L01      -0.195000
     36 C40          0.7830    -5.1110    -0.3400 ca         1 L01       0.139100
     37 O41          0.6120    -4.9010    -1.6930 os         1 L01      -0.344100
     38 C42          1.0090    -5.8740    -2.6770 c3         1 L01       0.149900
     39 C43          0.3620    -4.0990     0.5390 ca         1 L01      -0.147000
     40 H1C1        -6.6400    -1.5420     0.2990 hc         1 L01       0.034200
     41 H1C2        -8.1300    -0.6210     0.6020 hc         1 L01       0.034200
     42 H1C3        -7.0260    -0.1190    -0.6970 hc         1 L01       0.034200
     43 H2C1        -6.4240    -0.0600     2.3180 hc         1 L01       0.047450
     44 H2C2        -6.7940     1.3550     1.3290 hc         1 L01       0.047450
     45 H3C1        -4.3400    -0.4590     1.0140 h1         1 L01       0.052950
     46 H3C2        -4.7350     0.8520    -0.0820 h1         1 L01       0.052950
     47 H5C1        -4.9900     1.0110     3.6950 h1         1 L01       0.052950
     48 H5C2        -3.5040     1.9130     3.8490 h1         1 L01       0.052950
     49 H6C1        -3.8130    -1.0600     3.1840 hc         1 L01       0.047450
     50 H6C2        -2.2880    -0.2120     2.9460 hc         1 L01       0.047450
     51 H7C1        -3.7680    -0.4590     5.6330 hc         1 L01       0.034200
     52 H7C2        -2.3240    -1.3760     5.1500 hc         1 L01       0.034200
     53 H7C3        -2.2190     0.3810     5.3870 hc         1 L01       0.034200
     54 H11         -3.9400     5.5390     1.6570 ha         1 L01       0.130000
     55 H12         -2.2280     7.0020     2.6880 ha         1 L01       0.122000
     56 H13         -0.1980     6.0330     3.7190 ha         1 L01       0.135000
     57 H15         -1.5310     2.0780     2.5680 ha         1 L01       0.122000
     58 H18         -0.3310     1.5510     3.8520 hn         1 L01       0.310500
     59 H19          2.4560     1.9060     4.8690 h1         1 L01       0.084700
     60 H211         0.2580     0.4170     6.3750 hc         1 L01       0.053700
     61 H212         1.9490     0.4900     6.8280 hc         1 L01       0.053700
     62 H23          2.9800     2.7330     7.5030 ha         1 L01       0.107500
     63 H24          2.5520     4.8550     8.7260 ha         1 L01       0.113500
     64 H25          0.2190     5.6900     9.0040 ha         1 L01       0.114000
     65 H26         -1.6880     4.3920     8.0590 ha         1 L01       0.113500
     66 H27         -1.2690     2.2690     6.8390 ha         1 L01       0.107500
     67 H28          2.7840    -0.4770     4.6260 h1         1 L01       0.048700
     68 H30          3.0140     1.0030     2.7940 ho         1 L01       0.452000
     69 H311        -0.1070    -0.6060     3.6510 h1         1 L01       0.032700
     70 H312         0.5610    -1.4220     5.0740 h1         1 L01       0.032700
     71 H32          1.5270    -1.8570     2.3380 hn         1 L01       0.432000
     72 H351        -0.7710    -2.5890     2.4010 h1         1 L01       0.034700
     73 H352        -0.3660    -3.6060     3.7900 h1         1 L01       0.034700
     74 H37          1.2040    -5.5570     3.5150 ha         1 L01       0.131000
     75 H38          1.9510    -7.3560     1.9700 ha         1 L01       0.111000
     76 H39          1.6940    -7.0920    -0.4730 ha         1 L01       0.116000
     77 H421         2.0880    -6.0700    -2.6180 h1         1 L01       0.040033
     78 H422         0.7840    -5.5070    -3.6860 h1         1 L01       0.040033
     79 H423         0.4710    -6.8190    -2.5300 h1         1 L01       0.040033
     80 H43         -0.0790    -3.1930     0.1340 ha         1 L01       0.122000
@<TRIPOS>BOND
     1     1     2 1   
     2     1    40 1   
     3     1    41 1   
     4     1    42 1   
     5     2     3 1   
     6     2    43 1   
     7     2    44 1   
     8     3     4 1   
     9     3    45 1   
    10     3    46 1   
    11     4     5 1   
    12     4     8 1   
    13     5     6 1   
    14     5    47 1   
    15     5    48 1   
    16     6     7 1   
    17     6    49 1   
    18     6    50 1   
    19     7    51 1   
    20     7    52 1   
    21     7    53 1   
    22     8     9 2   
    23     8    10 1   
    24    10    11 ar  
    25    10    15 ar  
    26    11    12 ar  
    27    11    54 1   
    28    12    13 ar  
    29    12    55 1   
    30    13    14 ar  
    31    13    56 1   
    32    14    15 ar  
    33    14    16 1   
    34    15    57 1   
    35    16    17 2   
    36    16    18 1   
    37    18    19 1   
    38    18    58 1   
    39    19    20 1   
    40    19    27 1   
    41    19    59 1   
    42    20    21 1   
    43    20    60 1   
    44    20    61 1   
    45    21    22 ar  
    46    21    26 ar  
    47    22    23 ar  
    48    22    62 1   
    49    23    24 ar  
    50    23    63 1   
    51    24    25 ar  
    52    24    64 1   
    53    25    26 ar  
    54    25    65 1   
    55    26    66 1   
    56    27    28 1   
    57    27    29 1   
    58    27    67 1   
    59    28    68 1   
    60    29    30 1   
    61    29    69 1   
    62    29    70 1   
    63    30    31 1   
    64    30    71 1   
    65    31    32 1   
    66    31    72 1   
    67    31    73 1   
    68    32    33 ar  
    69    32    39 ar  
    70    33    34 ar  
    71    33    74 1   
    72    34    35 ar  
    73    34    75 1   
    74    35    36 ar  
    75    35    76 1   
    76    36    37 1   
    77    36    39 ar  
    78    37    38 1   
    79    38    77 1   
    80    38    78 1   
    81    38    79 1   
    82    39    80 1   
@<TRIPOS>SUBSTRUCTURE
     1 L01         1 TEMP              0 ****  ****    0 ROOT
