@<TRIPOS>MOLECULE
L01
   80    82     1     0     0
SMALL
bcc


@<TRIPOS>ATOM
      1 C1          -7.4710     0.5140     0.0680 c3         1 L01      -0.090600
      2 C2          -6.5840     1.3390     0.9890 c3         1 L01      -0.099900
      3 C3          -5.1100     1.0020     0.7920 c3         1 L01       0.099000
      4 N4          -4.2240     1.7260     1.6950 n          1 L01      -0.472800
      5 C5          -4.0010     1.1080     2.9930 c3         1 L01       0.099000
      6 C6          -3.0230    -0.0620     2.9560 c3         1 L01      -0.099900
      7 C7          -2.7200    -0.5790     4.3540 c3         1 L01      -0.090600
      8 C8          -3.8540     2.9790     1.3600 c          1 L01       0.681700
      9 O9          -4.2400     3.5270     0.3350 o          1 L01      -0.591100
     10 C10         -2.9340     3.7320     2.2730 ca         1 L01      -0.151600
     11 C11         -3.2680     5.0400     2.6110 ca         1 L01      -0.067000
     12 C12         -2.4080     5.8030     3.3860 ca         1 L01      -0.145000
     13 C13         -1.1970     5.2790     3.8100 ca         1 L01      -0.061000
     14 C14         -0.8520     3.9720     3.4800 ca         1 L01      -0.156600
     15 C15         -1.7200     3.2100     2.7050 ca         1 L01      -0.083000
     16 C16          0.4590     3.4300     3.9540 c          1 L01       0.691700
     17 O17          1.4470     4.1420     4.0330 o          1 L01      -0.597100
     18 N18          0.4390     2.1280     4.2960 ns         1 L01      -0.560900
     19 C19          1.5750     1.3960     4.8090 c3         1 L01       0.076700
     20 C21          1.2680     0.8250     6.1990 c3         1 L01      -0.046100
     21 C22          0.8540     1.9010     7.1630 ca         1 L01      -0.083300
     22 C23          1.8000     2.7730     7.6990 ca         1 L01      -0.121000
     23 C24          1.4190     3.7960     8.5540 ca         1 L01      -0.124000
     24 C25          0.0810     3.9660     8.8870 ca         1 L01      -0.125000
     25 C26         -0.8700     3.1030     8.3610 ca         1 L01      -0.124000
     26 C27         -0.4830     2.0790     7.5060 ca         1 L01      -0.121000
     27 C28          2.0500     0.3240     3.8180 c3         1 L01       0.138100
     28 O30          2.5060     0.9090     2.6200 oh         1 L01      -0.592800
     29 C31          0.9600    -0.6650     3.4400 c3         1 L01       0.166800
     30 N32          1.4880    -1.7790     2.6840 n7         1 L01      -0.810200
     31 C35          0.4670    -2.7520     2.3580 c3         1 L01       0.206100
     32 C36          1.0250    -3.9700     1.6680 ca         1 L01      -0.053300
     33 C37          2.3100    -4.4370     1.9470 ca         1 L01      -0.144000
     34 C38          2.7670    -5.5910     1.3330 ca         1 L01      -0.096000
     35 C39          1.9700    -6.3050     0.4440 ca         1 L01      -0.213000
     36 C40          0.6880    -5.8410     0.1650 ca         1 L01       0.139100
     37 O41         -0.1740    -6.4440    -0.6770 os         1 L01      -0.320900
     38 C42          0.2190    -7.6530    -1.2940 c3         1 L01       0.126700
     39 C43          0.2290    -4.6710     0.7750 ca         1 L01      -0.165000
     40 H1C1        -7.3390    -0.5550     0.2420 hc         1 L01       0.034200
     41 H1C2        -8.5240     0.7450     0.2250 hc         1 L01       0.034200
     42 H1C3        -7.2440     0.7090    -0.9820 hc         1 L01       0.034200
     43 H2C1        -6.8660     1.1570     2.0300 hc         1 L01       0.047450
     44 H2C2        -6.7410     2.4030     0.8020 hc         1 L01       0.047450
     45 H3C1        -4.9520    -0.0650     0.9620 h1         1 L01       0.052950
     46 H3C2        -4.8120     1.1980    -0.2380 h1         1 L01       0.052950
     47 H5C1        -4.9650     0.7620     3.3790 h1         1 L01       0.052950
     48 H5C2        -3.6520     1.8620     3.6980 h1         1 L01       0.052950
     49 H6C1        -3.4270    -0.8730     2.3470 hc         1 L01       0.047450
     50 H6C2        -2.0970     0.2480     2.4620 hc         1 L01       0.047450
     51 H7C1        -3.6210    -0.9380     4.8530 hc         1 L01       0.034200
     52 H7C2        -2.0070    -1.4030     4.3240 hc         1 L01       0.034200
     53 H7C3        -2.2960     0.2050     4.9890 hc         1 L01       0.034200
     54 H11         -4.2060     5.4630     2.2730 ha         1 L01       0.148000
     55 H12         -2.6800     6.8150     3.6550 ha         1 L01       0.140000
     56 H13         -0.5250     5.8810     4.4070 ha         1 L01       0.153000
     57 H15         -1.4310     2.2140     2.3940 ha         1 L01       0.140000
     58 H18         -0.4560     1.6650     4.3190 hn         1 L01       0.310500
     59 H19          2.3870     2.1190     4.9230 h1         1 L01       0.084700
     60 H211         0.4840     0.0660     6.1380 hc         1 L01       0.053700
     61 H212         2.1630     0.3140     6.5600 hc         1 L01       0.053700
     62 H23          2.8460     2.6500     7.4440 ha         1 L01       0.125500
     63 H24          2.1680     4.4630     8.9620 ha         1 L01       0.131500
     64 H25         -0.2170     4.7650     9.5540 ha         1 L01       0.132000
     65 H26         -1.9150     3.2240     8.6160 ha         1 L01       0.131500
     66 H27         -1.2330     1.4030     7.1090 ha         1 L01       0.125500
     67 H28          2.8560    -0.2370     4.3130 h1         1 L01       0.048700
     68 H30          3.3010     1.4180     2.8070 ho         1 L01       0.413000
     69 H311         0.1610    -0.1320     2.8990 h1         1 L01       0.032700
     70 H312         0.5060    -1.0650     4.3510 h1         1 L01       0.032700
     71 H32          1.9040    -1.4350     1.8260 hn         1 L01       0.376800
     72 H351        -0.3480    -2.3330     1.7480 h1         1 L01       0.034700
     73 H352        -0.0010    -3.0740     3.2950 h1         1 L01       0.034700
     74 H37          2.9430    -3.8970     2.6370 ha         1 L01       0.149000
     75 H38          3.7650    -5.9520     1.5460 ha         1 L01       0.129000
     76 H39          2.3610    -7.2040    -0.0140 ha         1 L01       0.134000
     77 H421         1.0920    -7.5210    -1.9390 h1         1 L01       0.040033
     78 H422        -0.6200    -7.9760    -1.9050 h1         1 L01       0.040033
     79 H423         0.4410    -8.4330    -0.5590 h1         1 L01       0.040033
     80 H43         -0.7690    -4.3160     0.5430 ha         1 L01       0.140000
@<TRIPOS>BOND
     1     1     2 1   
     2     1    40 1   
     3     1    41 1   
     4     1    42 1   
     5     2     3 1   
     6     2    43 1   
     7     2    44 1   
     8     3     4 1   
     9     3    45 1   
    10     3    46 1   
    11     4     5 1   
    12     4     8 1   
    13     5     6 1   
    14     5    47 1   
    15     5    48 1   
    16     6     7 1   
    17     6    49 1   
    18     6    50 1   
    19     7    51 1   
    20     7    52 1   
    21     7    53 1   
    22     8     9 2   
    23     8    10 1   
    24    10    11 ar  
    25    10    15 ar  
    26    11    12 ar  
    27    11    54 1   
    28    12    13 ar  
    29    12    55 1   
    30    13    14 ar  
    31    13    56 1   
    32    14    15 ar  
    33    14    16 1   
    34    15    57 1   
    35    16    17 2   
    36    16    18 1   
    37    18    19 1   
    38    18    58 1   
    39    19    20 1   
    40    19    27 1   
    41    19    59 1   
    42    20    21 1   
    43    20    60 1   
    44    20    61 1   
    45    21    22 ar  
    46    21    26 ar  
    47    22    23 ar  
    48    22    62 1   
    49    23    24 ar  
    50    23    63 1   
    51    24    25 ar  
    52    24    64 1   
    53    25    26 ar  
    54    25    65 1   
    55    26    66 1   
    56    27    28 1   
    57    27    29 1   
    58    27    67 1   
    59    28    68 1   
    60    29    30 1   
    61    29    69 1   
    62    29    70 1   
    63    30    31 1   
    64    30    71 1   
    65    31    32 1   
    66    31    72 1   
    67    31    73 1   
    68    32    33 ar  
    69    32    39 ar  
    70    33    34 ar  
    71    33    74 1   
    72    34    35 ar  
    73    34    75 1   
    74    35    36 ar  
    75    35    76 1   
    76    36    37 1   
    77    36    39 ar  
    78    37    38 1   
    79    38    77 1   
    80    38    78 1   
    81    38    79 1   
    82    39    80 1   
@<TRIPOS>SUBSTRUCTURE
     1 L01         1 TEMP              0 ****  ****    0 ROOT
