@<TRIPOS>MOLECULE
L02
   34    36     1     0     0
SMALL
No Charge or Current Charge


@<TRIPOS>ATOM
      1 N1           1.2420     0.8140     1.5680 na         1 L02       0.006800
      2 N3           1.4590     0.8710     0.1990 nc         1 L02      -0.516800
      3 C4           0.4160     0.2270    -0.3050 cd         1 L02       0.302500
      4 C5          -0.4500    -0.2360     0.7150 cd         1 L02      -0.214000
      5 C6           0.0760     0.1390     1.9150 cc         1 L02      -0.135300
      6 C7          -0.4850    -0.1260     3.2950 c6         1 L02      -0.004400
      7 C8           0.5010    -0.9780     4.1380 c6         1 L02      -0.072400
      8 C10         -0.0360    -1.1850     5.5750 c6         1 L02       0.158800
      9 N12         -0.3310     0.1120     6.2320 n7         1 L02      -0.865400
     10 C13         -1.3000     0.9370     5.4690 c6         1 L02       0.158800
     11 C15         -0.7980     1.2040     4.0290 c6         1 L02      -0.072400
     12 C20          1.2550     0.4400    -2.6720 ca         1 L02      -0.085000
     13 C21          0.2420     0.0450    -1.7660 ca         1 L02      -0.108500
     14 C22         -0.9520    -0.5050    -2.2880 ca         1 L02      -0.085000
     15 C24         -1.1210    -0.6670    -3.6750 ca         1 L02      -0.108500
     16 C26         -0.1040    -0.2770    -4.5580 ca         1 L02       0.122000
     17 C28          1.0820     0.2780    -4.0580 ca         1 L02      -0.108500
     18 Cl1         -0.3190    -0.4790    -6.2920 cl         1 L02      -0.207000
     19 H1           1.9000     1.2380     2.2200 hn         1 L02       0.373000
     20 H5          -1.3670    -0.7950     0.5770 ha         1 L02       0.143000
     21 H7          -1.4240    -0.6900     3.1990 hc         1 L02       0.063700
     22 H8C1         0.6610    -1.9530     3.6580 hc         1 L02       0.050700
     23 H8C2         1.4820    -0.4870     4.1860 hc         1 L02       0.050700
     24 H101        -0.9530    -1.7940     5.5390 h1         1 L02       0.032200
     25 H102         0.7060    -1.7380     6.1700 h1         1 L02       0.032200
     26 H12         -0.7160    -0.0710     7.1690 hn         1 L02       0.414000
     27 H131        -2.2690     0.4180     5.4290 h1         1 L02       0.032200
     28 H132        -1.4560     1.8940     5.9890 h1         1 L02       0.032200
     29 H151         0.0990     1.8360     4.0700 hc         1 L02       0.050700
     30 H152        -1.5560     1.7710     3.4720 hc         1 L02       0.050700
     31 H22         -1.7590    -0.8100    -1.6270 ha         1 L02       0.125000
     32 H24         -2.0430    -1.0920    -4.0640 ha         1 L02       0.128000
     33 H28          1.8690     0.5820    -4.7440 ha         1 L02       0.128000
     34 H20          2.1840     0.8730    -2.3080 ha         1 L02       0.125000
@<TRIPOS>BOND
     1     1     2 1   
     2     1     5 1   
     3     1    19 1   
     4     2     3 2   
     5     3     4 1   
     6     3    13 1   
     7     4     5 2   
     8     4    20 1   
     9     5     6 1   
    10     6     7 1   
    11     6    11 1   
    12     6    21 1   
    13     7     8 1   
    14     7    22 1   
    15     7    23 1   
    16     8     9 1   
    17     8    24 1   
    18     8    25 1   
    19     9    10 1   
    20     9    26 1   
    21    10    11 1   
    22    10    27 1   
    23    10    28 1   
    24    11    29 1   
    25    11    30 1   
    26    12    13 ar  
    27    12    17 ar  
    28    12    34 1   
    29    13    14 ar  
    30    14    15 ar  
    31    14    31 1   
    32    15    16 ar  
    33    15    32 1   
    34    16    17 ar  
    35    16    18 1   
    36    17    33 1   
@<TRIPOS>SUBSTRUCTURE
     1 L02         1 TEMP              0 ****  ****    0 ROOT
