@<TRIPOS>MOLECULE
L02
   34    36     1     0     0
SMALL
abcg2


@<TRIPOS>ATOM
      1 N1           1.1090     0.7230     1.5610 na         1 L02       0.006800
      2 N3           1.3240     0.7850     0.2540 nc         1 L02      -0.516800
      3 C4           0.2960     0.1590    -0.2970 cd         1 L02       0.302500
      4 C5          -0.5900    -0.3080     0.6980 cd         1 L02      -0.214000
      5 C6          -0.0270     0.0770     1.8930 cc         1 L02      -0.135300
      6 C7          -0.4820    -0.1210     3.2990 c6         1 L02      -0.004400
      7 C8           0.5020    -0.9600     4.1240 c6         1 L02      -0.072400
      8 C10         -0.0130    -1.1340     5.5450 c6         1 L02       0.158800
      9 N12         -0.2300     0.1640     6.1570 n7         1 L02      -0.865400
     10 C13         -1.2300     0.9350     5.4420 c6         1 L02       0.158800
     11 C15         -0.7630     1.2040     4.0190 c6         1 L02      -0.072400
     12 C20          1.2170     0.4440    -2.5920 ca         1 L02      -0.085000
     13 C21          0.1850     0.0240    -1.7510 ca         1 L02      -0.108500
     14 C22         -0.9560    -0.5270    -2.3310 ca         1 L02      -0.085000
     15 C24         -1.0720    -0.6580    -3.7060 ca         1 L02      -0.108500
     16 C26         -0.0320    -0.2320    -4.5160 ca         1 L02       0.122000
     17 C28          1.1150     0.3210    -3.9670 ca         1 L02      -0.108500
     18 CL1         -0.1670    -0.3920    -6.2370 cl         1 L02      -0.207000
     19 H1           1.7760     1.1490     2.1860 hn         1 L02       0.373000
     20 H5          -1.5090    -0.8580     0.5760 ha         1 L02       0.143000
     21 H7          -1.4250    -0.6750     3.2440 hc         1 L02       0.063700
     22 H8C1         0.6490    -1.9370     3.6580 hc         1 L02       0.050700
     23 H8C2         1.4790    -0.4690     4.1580 hc         1 L02       0.050700
     24 H101        -0.9300    -1.7460     5.5160 h1         1 L02       0.032200
     25 H102         0.7180    -1.6870     6.1380 h1         1 L02       0.032200
     26 H12         -0.5210     0.0400     7.1180 hn         1 L02       0.414000
     27 H131        -2.2070     0.4240     5.3980 h1         1 L02       0.032200
     28 H132        -1.3900     1.8800     5.9650 h1         1 L02       0.032200
     29 H151         0.1410     1.8190     4.0450 hc         1 L02       0.050700
     30 H152        -1.5250     1.7710     3.4810 hc         1 L02       0.050700
     31 H22         -1.7800    -0.8610    -1.7130 ha         1 L02       0.125000
     32 H24         -1.9670    -1.0860    -4.1370 ha         1 L02       0.128000
     33 H28          1.9260     0.6520    -4.6030 ha         1 L02       0.128000
     34 H20          2.1160     0.8730    -2.1710 ha         1 L02       0.125000
@<TRIPOS>BOND
     1     1     2 1   
     2     1     5 1   
     3     1    19 1   
     4     2     3 2   
     5     3     4 1   
     6     3    13 1   
     7     4     5 2   
     8     4    20 1   
     9     5     6 1   
    10     6     7 1   
    11     6    11 1   
    12     6    21 1   
    13     7     8 1   
    14     7    22 1   
    15     7    23 1   
    16     8     9 1   
    17     8    24 1   
    18     8    25 1   
    19     9    10 1   
    20     9    26 1   
    21    10    11 1   
    22    10    27 1   
    23    10    28 1   
    24    11    29 1   
    25    11    30 1   
    26    12    13 ar  
    27    12    17 ar  
    28    12    34 1   
    29    13    14 ar  
    30    14    15 ar  
    31    14    31 1   
    32    15    16 ar  
    33    15    32 1   
    34    16    17 ar  
    35    16    18 1   
    36    17    33 1   
@<TRIPOS>SUBSTRUCTURE
     1 L02         1 TEMP              0 ****  ****    0 ROOT
