@<TRIPOS>MOLECULE
L04
   99   103     1     0     0
SMALL
No Charge or Current Charge


@<TRIPOS>ATOM
      1 C1          -0.6850     0.1430    -3.3050 c3         1 L04      -0.043400
      2 C2          -0.3850    -0.4180    -1.8870 c3         1 L04      -0.195700
      3 C3          -0.8150    -1.9000    -1.7540 c          1 L04       0.711000
      4 C4          -6.4490     1.6670     0.7430 c3         1 L04      -0.090100
      5 C5           6.7360    -0.3600     3.8030 cp         1 L04      -0.025000
      6 C6           7.3810    -1.5190     4.3090 ca         1 L04      -0.079500
      7 C7          -0.7700     0.0360     0.6880 c3         1 L04      -0.126700
      8 C8           0.7300     0.0820     1.1010 c3         1 L04      -0.063400
      9 C9           1.0000    -0.3830     2.5510 c3         1 L04      -0.039100
     10 C10          2.4860    -0.3790     2.8810 ca         1 L04      -0.048300
     11 C11          3.0980     0.7800     3.3910 ca         1 L04      -0.106500
     12 C12          4.4710     0.7860     3.6890 ca         1 L04      -0.100500
     13 C13          5.2720    -0.3660     3.4850 cp         1 L04      -0.063000
     14 C14          4.6380    -1.5250     2.9680 ca         1 L04      -0.100500
     15 C15          3.2650    -1.5310     2.6690 ca         1 L04      -0.106500
     16 C16         -1.6410     0.8810     1.6410 c          1 L04       0.604100
     17 C17          8.7550    -1.5120     4.6080 ca         1 L04      -0.154500
     18 C18         -1.0210     0.4790    -0.7840 c3         1 L04      -0.039400
     19 C19         -3.5550     0.7580     3.3100 c3         1 L04       0.034700
     20 C20         -4.9660     0.8650     2.6600 c3         1 L04      -0.085400
     21 C21         -5.0850     1.8340     1.4490 c3         1 L04      -0.060700
     22 C22         -4.8580     3.3120     1.8470 c3         1 L04      -0.090100
     23 C23          0.0180    -0.6230    -4.4500 c3         1 L04      -0.070400
     24 C24         -0.2510    -0.0080    -5.8400 c3         1 L04      -0.100400
     25 C25          0.4490    -0.7700    -6.9820 c3         1 L04       0.108000
     26 C26         -0.7600    -0.7040    -9.1860 c          1 L04       0.573600
     27 C27         -3.5980    -0.0860     4.6190 c          1 L04       0.591100
     28 C28          0.8980     1.0310    -8.8470 c5         1 L04       0.141300
     29 C29         -0.7310     0.1470   -10.3900 ca         1 L04      -0.155600
     30 C30         -4.4870     0.1670     7.0220 ca         1 L04      -0.010000
     31 C31         -4.0950    -1.0750     7.5690 ca         1 L04      -0.152500
     32 C32         -4.3880    -1.3870     8.9090 ca         1 L04      -0.085500
     33 C33         -5.0730    -0.4640     9.7150 ca         1 L04      -0.147000
     34 C34         -5.4660     0.7730     9.1810 ca         1 L04      -0.085500
     35 C35         -5.1740     1.0840     7.8420 ca         1 L04      -0.152500
     36 C36          0.2140     1.1420   -10.2040 ca         1 L04      -0.082300
     37 C37         -1.4890     0.0460   -11.5650 ca         1 L04      -0.042000
     38 C38          0.4440     2.0950   -11.2080 ca         1 L04      -0.104000
     39 C39         -0.3040     2.0190   -12.4020 ca         1 L04      -0.097000
     40 C40         -1.2660     0.9980   -12.5800 ca         1 L04      -0.129000
     41 C41          9.5080    -0.3480     4.4050 ca         1 L04       0.157000
     42 C42          8.8970     0.8110     3.9060 ca         1 L04      -0.154500
     43 C43          7.5230     0.8050     3.6080 ca         1 L04      -0.079500
     44 N1           0.1920    -0.1710    -8.3030 n          1 L04      -0.412800
     45 N18         -2.5840     0.1740     2.3540 ns         1 L04      -0.499900
     46 O4          -2.0020    -2.1770    -1.8420 o          1 L04      -0.733500
     47 O5           0.0540    -2.7340    -1.5510 o          1 L04      -0.733500
     48 O17         -1.5030     2.0890     1.7660 o          1 L04      -0.640100
     49 O28         -3.1080    -1.2100     4.6880 o          1 L04      -0.571100
     50 F1          10.8280    -0.3420     4.6920 f          1 L04      -0.189000
     51 H11A        -1.7680     0.1360    -3.4780 hc         1 L04       0.019700
     52 H12A        -0.3690     1.1940    -3.3440 hc         1 L04       0.019700
     53 H2           0.7040    -0.3750    -1.7640 hc         1 L04       0.035700
     54 H41         -6.5140     2.3200    -0.1360 hc         1 L04       0.032533
     55 H42A        -6.5880     0.6330     0.4040 hc         1 L04       0.032533
     56 H43A        -7.2740     1.9200     1.4200 hc         1 L04       0.032533
     57 H6           6.8080    -2.4260     4.4850 ha         1 L04       0.120500
     58 H7          -1.1030    -1.0040     0.7820 hc         1 L04       0.089700
     59 H81          1.3140    -0.5570     0.4280 hc         1 L04       0.066700
     60 H82          1.1120     1.1030     0.9750 hc         1 L04       0.066700
     61 H91          0.4660     0.2670     3.2550 hc         1 L04       0.049200
     62 H92          0.5870    -1.3900     2.6910 hc         1 L04       0.049200
     63 H11          2.5080     1.6790     3.5580 ha         1 L04       0.123500
     64 H12          4.9150     1.6910     4.0950 ha         1 L04       0.106000
     65 H14          5.2190    -2.4250     2.7830 ha         1 L04       0.106000
     66 H15          2.8070    -2.4320     2.2680 ha         1 L04       0.123500
     67 H17          9.2340    -2.4070     4.9990 ha         1 L04       0.125000
     68 H181        -2.1050     0.5170    -0.9510 hc         1 L04       0.028200
     69 H182        -0.6570     1.5070    -0.9080 hc         1 L04       0.028200
     70 H19         -3.2150     1.7590     3.6070 h1         1 L04       0.085700
     71 H201        -5.6930     1.1770     3.4210 hc         1 L04       0.047200
     72 H202        -5.2710    -0.1410     2.3440 hc         1 L04       0.047200
     73 H21         -4.3140     1.5650     0.7160 hc         1 L04       0.071700
     74 H221        -5.5940     3.6320     2.5950 hc         1 L04       0.032533
     75 H222        -3.8570     3.4670     2.2640 hc         1 L04       0.032533
     76 H223        -4.9550     3.9660     0.9720 hc         1 L04       0.032533
     77 H231         1.0990    -0.6360    -4.2640 hc         1 L04       0.051700
     78 H232        -0.3190    -1.6680    -4.4530 hc         1 L04       0.051700
     79 H241        -1.3320     0.0030    -6.0290 hc         1 L04       0.036700
     80 H242         0.0870     1.0360    -5.8450 hc         1 L04       0.036700
     81 H251         1.5330    -0.7690    -6.8040 h1         1 L04       0.058700
     82 H252         0.1170    -1.8170    -6.9800 h1         1 L04       0.058700
     83 H281         0.7230     1.9230    -8.2300 h1         1 L04       0.060700
     84 H282         1.9780     0.8620    -8.9480 h1         1 L04       0.060700
     85 H31         -3.5640    -1.8140     6.9780 ha         1 L04       0.129000
     86 H32         -4.0820    -2.3460     9.3220 ha         1 L04       0.108000
     87 H33         -5.2980    -0.7070    10.7510 ha         1 L04       0.108000
     88 H34         -5.9980     1.4900     9.8030 ha         1 L04       0.108000
     89 H35         -5.4850     2.0470     7.4400 ha         1 L04       0.129000
     90 H37         -2.2270    -0.7450   -11.6900 ha         1 L04       0.133000
     91 H38          1.1850     2.8800   -11.0690 ha         1 L04       0.115000
     92 H39         -0.1390     2.7500   -13.1900 ha         1 L04       0.107000
     93 H40         -1.8380     0.9480   -13.5040 ha         1 L04       0.111000
     94 H42          9.4870     1.7100     3.7470 ha         1 L04       0.125000
     95 H43          7.0670     1.7080     3.2080 ha         1 L04       0.120500
     96 HN8         -2.5990    -0.8310     2.2160 hn         1 L04       0.343500
     97 HN9         -4.5750     1.4800     5.4520 hn         1 L04       0.152000
     98 N29         -4.2290     0.5560     5.6780 ns         1 L04      -0.147000
     99 O1          -1.4720    -1.6800    -8.9930 o          1 L04      -0.540000
@<TRIPOS>BOND
     1     1     2 1   
     2     1    23 1   
     3     1    51 1   
     4     1    52 1   
     5     2     3 1   
     6     2    18 1   
     7     2    53 1   
     8     3    46 1   
     9     3    47 1   
    10     4    21 1   
    11     4    54 1   
    12     4    55 1   
    13     4    56 1   
    14     5     6 ar  
    15     5    13 1   
    16     5    43 ar  
    17     6    17 ar  
    18     6    57 1   
    19     7     8 1   
    20     7    16 1   
    21     7    18 1   
    22     7    58 1   
    23     8     9 1   
    24     8    59 1   
    25     8    60 1   
    26     9    10 1   
    27     9    61 1   
    28     9    62 1   
    29    10    11 ar  
    30    10    15 ar  
    31    11    12 ar  
    32    11    63 1   
    33    12    13 ar  
    34    12    64 1   
    35    13    14 ar  
    36    14    15 ar  
    37    14    65 1   
    38    15    66 1   
    39    16    45 1   
    40    16    48 2   
    41    17    41 ar  
    42    17    67 1   
    43    18    68 1   
    44    18    69 1   
    45    19    20 1   
    46    19    27 1   
    47    19    45 1   
    48    19    70 1   
    49    20    21 1   
    50    20    71 1   
    51    20    72 1   
    52    21    22 1   
    53    21    73 1   
    54    22    74 1   
    55    22    75 1   
    56    22    76 1   
    57    23    24 1   
    58    23    77 1   
    59    23    78 1   
    60    24    25 1   
    61    24    79 1   
    62    24    80 1   
    63    25    44 1   
    64    25    81 1   
    65    25    82 1   
    66    26    29 1   
    67    26    44 1   
    68    26    99 2   
    69    27    49 2   
    70    27    98 1   
    71    28    36 1   
    72    28    44 1   
    73    28    83 1   
    74    28    84 1   
    75    29    36 ar  
    76    29    37 ar  
    77    30    31 ar  
    78    30    35 ar  
    79    30    98 1   
    80    31    32 ar  
    81    31    85 1   
    82    32    33 ar  
    83    32    86 1   
    84    33    34 ar  
    85    33    87 1   
    86    34    35 ar  
    87    34    88 1   
    88    35    89 1   
    89    36    38 ar  
    90    37    40 ar  
    91    37    90 1   
    92    38    39 ar  
    93    38    91 1   
    94    39    40 ar  
    95    39    92 1   
    96    40    93 1   
    97    41    42 ar  
    98    41    50 1   
    99    42    43 ar  
   100    42    94 1   
   101    43    95 1   
   102    45    96 1   
   103    97    98 1   
@<TRIPOS>SUBSTRUCTURE
     1 L04         1 TEMP              0 ****  ****    0 ROOT
