@<TRIPOS>MOLECULE
L04
   99   103     1     0     0
SMALL
bcc


@<TRIPOS>ATOM
      1 C1          -0.6120    -0.1050    -2.8810 c3         1 L04      -0.043400
      2 C2          -0.1140    -0.5760    -1.5150 c3         1 L04      -0.195700
      3 C3          -0.2280    -2.1060    -1.3800 c          1 L04       0.921600
      4 C4          -6.0510     1.7360     0.0700 c3         1 L04      -0.090100
      5 C5           6.9890    -0.2380     3.5650 cp         1 L04      -0.025000
      6 C6           7.7250    -1.3000     4.0940 ca         1 L04      -0.097500
      7 C7          -0.5800    -0.3000     1.0200 c3         1 L04      -0.126700
      8 C8           0.9010    -0.1740     1.3530 c3         1 L04      -0.063400
      9 C9           1.2550    -0.6330     2.7700 c3         1 L04      -0.039100
     10 C10          2.7340    -0.5480     3.0170 ca         1 L04      -0.048300
     11 C11          3.3210     0.6450     3.4340 ca         1 L04      -0.124500
     12 C12          4.6910     0.7480     3.6130 ca         1 L04      -0.118500
     13 C13          5.5280    -0.3440     3.3800 cp         1 L04      -0.063000
     14 C14          4.9420    -1.5400     2.9650 ca         1 L04      -0.118500
     15 C15          3.5710    -1.6370     2.7870 ca         1 L04      -0.124500
     16 C16         -1.4370     0.5480     1.9450 c          1 L04       0.671100
     17 C17          9.0980    -1.2130     4.2630 ca         1 L04      -0.172500
     18 C18         -0.9080     0.1360    -0.4190 c3         1 L04      -0.039400
     19 C19         -3.6690     0.6960     2.9770 c3         1 L04       0.034700
     20 C20         -4.9390     0.8880     2.1360 c3         1 L04      -0.085400
     21 C21         -4.7440     1.7050     0.8570 c3         1 L04      -0.060700
     22 C22         -4.2570     3.1230     1.1410 c3         1 L04      -0.090100
     23 C23          0.1510    -0.6920    -4.0620 c3         1 L04      -0.070400
     24 C24         -0.3140    -0.1140    -5.3930 c3         1 L04      -0.100400
     25 C25          0.4360    -0.7120    -6.5780 c3         1 L04       0.108000
     26 C26         -0.9250    -0.6510    -8.6390 c          1 L04       0.716100
     27 C27         -4.0290    -0.1060     4.2260 c          1 L04       0.658100
     28 C28          0.5600     1.1320    -8.3020 c5         1 L04       0.141300
     29 C29         -1.0710     0.2970    -9.7640 ca         1 L04      -0.155600
     30 C30         -4.8740     0.2950     6.5370 ca         1 L04       0.082600
     31 C31         -5.0890    -1.0240     6.9420 ca         1 L04      -0.170500
     32 C32         -5.5830    -1.2750     8.2160 ca         1 L04      -0.103500
     33 C33         -5.8660    -0.2430     9.0980 ca         1 L04      -0.165000
     34 C34         -5.6490     1.0670     8.6920 ca         1 L04      -0.103500
     35 C35         -5.1580     1.3340     7.4260 ca         1 L04      -0.170500
     36 C36         -0.2000     1.3560    -9.5710 ca         1 L04      -0.082300
     37 C37         -1.9110     0.2300   -10.8630 ca         1 L04      -0.060000
     38 C38         -0.1400     2.3940   -10.4850 ca         1 L04      -0.122000
     39 C39         -0.9790     2.3370   -11.5930 ca         1 L04      -0.115000
     40 C40         -1.8550     1.2680   -11.7830 ca         1 L04      -0.147000
     41 C41          9.7370    -0.0430     3.8980 ca         1 L04       0.121900
     42 C42          9.0460     1.0320     3.3740 ca         1 L04      -0.172500
     43 C43          7.6740     0.9250     3.2110 ca         1 L04      -0.097500
     44 N1           0.0400    -0.1380    -7.8410 n          1 L04      -0.479800
     45 N18         -2.6380     0.0130     2.2430 ns         1 L04      -0.566900
     46 O4          -1.3830    -2.5780    -1.4270 o          1 L04      -0.838800
     47 O5           0.8280    -2.7550    -1.2320 o          1 L04      -0.838800
     48 O17         -1.0800     1.6500     2.3390 o          1 L04      -0.640100
     49 O28         -4.0270    -1.3230     4.2230 o          1 L04      -0.571100
     50 F1          11.0670     0.0510     4.0570 f          1 L04      -0.153900
     51 H11A        -1.6750    -0.3480    -2.9790 hc         1 L04       0.019700
     52 H12A        -0.5440     0.9880    -2.9250 hc         1 L04       0.019700
     53 H2           0.9400    -0.2910    -1.4290 hc         1 L04       0.035700
     54 H41         -5.9260     2.2710    -0.8740 hc         1 L04       0.032533
     55 H42A        -6.4040     0.7300    -0.1640 hc         1 L04       0.032533
     56 H43A        -6.8370     2.2420     0.6350 hc         1 L04       0.032533
     57 H6           7.2200    -2.2080     4.3980 ha         1 L04       0.138500
     58 H7          -0.8750    -1.3500     1.1320 hc         1 L04       0.089700
     59 H81          1.4630    -0.7870     0.6450 hc         1 L04       0.066700
     60 H82          1.2290     0.8590     1.2050 hc         1 L04       0.066700
     61 H91          0.7280    -0.0240     3.5070 hc         1 L04       0.049200
     62 H92          0.9150    -1.6630     2.9110 hc         1 L04       0.049200
     63 H11          2.6950     1.5080     3.6320 ha         1 L04       0.141500
     64 H12          5.1080     1.6850     3.9610 ha         1 L04       0.124000
     65 H14          5.5640    -2.4030     2.7590 ha         1 L04       0.124000
     66 H15          3.1460    -2.5780     2.4550 ha         1 L04       0.141500
     67 H17          9.6580    -2.0390     4.6800 ha         1 L04       0.143000
     68 H181        -1.9740    -0.0320    -0.5980 hc         1 L04       0.028200
     69 H182        -0.7440     1.2150    -0.5090 hc         1 L04       0.028200
     70 H19         -3.2680     1.6670     3.2690 h1         1 L04       0.085700
     71 H201        -5.6990     1.3730     2.7580 hc         1 L04       0.047200
     72 H202        -5.3370    -0.0980     1.8760 hc         1 L04       0.047200
     73 H21         -3.9940     1.1990     0.2400 hc         1 L04       0.071700
     74 H221        -4.9430     3.6450     1.8120 hc         1 L04       0.032533
     75 H222        -3.2650     3.1370     1.5930 hc         1 L04       0.032533
     76 H223        -4.1970     3.7010     0.2170 hc         1 L04       0.032533
     77 H231         1.2230    -0.5040    -3.9380 hc         1 L04       0.051700
     78 H232         0.0320    -1.7800    -4.0800 hc         1 L04       0.051700
     79 H241        -1.3850    -0.2940    -5.5190 hc         1 L04       0.036700
     80 H242        -0.1790     0.9730    -5.3840 hc         1 L04       0.036700
     81 H251         1.5120    -0.5610    -6.4570 h1         1 L04       0.058700
     82 H252         0.2710    -1.7890    -6.6230 h1         1 L04       0.058700
     83 H281         0.3840     1.9270    -7.5710 h1         1 L04       0.060700
     84 H282         1.6400     1.0780    -8.4710 h1         1 L04       0.060700
     85 H31         -4.8780    -1.8500     6.2830 ha         1 L04       0.147000
     86 H32         -5.7450    -2.3020     8.5160 ha         1 L04       0.126000
     87 H33         -6.2510    -0.4570    10.0860 ha         1 L04       0.126000
     88 H34         -5.8620     1.8900     9.3610 ha         1 L04       0.126000
     89 H35         -4.9950     2.3610     7.1200 ha         1 L04       0.147000
     90 H37         -2.5880    -0.6040   -11.0010 ha         1 L04       0.151000
     91 H38          0.5360     3.2280   -10.3470 ha         1 L04       0.133000
     92 H39         -0.9510     3.1350   -12.3220 ha         1 L04       0.125000
     93 H40         -2.4950     1.2520   -12.6550 ha         1 L04       0.129000
     94 H42          9.5690     1.9350     3.0860 ha         1 L04       0.143000
     95 H43          7.1360     1.7600     2.7810 ha         1 L04       0.138500
     96 HN8         -2.8560    -0.9020     1.8820 hn         1 L04       0.343500
     97 HN9         -4.2920     1.6620     5.1440 hn         1 L04       0.318500
     98 N29         -4.3860     0.6660     5.2780 ns         1 L04      -0.473100
     99 O1          -1.5420    -1.6900    -8.4550 o          1 L04      -0.615500
@<TRIPOS>BOND
     1     1     2 1   
     2     1    23 1   
     3     1    51 1   
     4     1    52 1   
     5     2     3 1   
     6     2    18 1   
     7     2    53 1   
     8     3    46 1   
     9     3    47 1   
    10     4    21 1   
    11     4    54 1   
    12     4    55 1   
    13     4    56 1   
    14     5     6 ar  
    15     5    13 1   
    16     5    43 ar  
    17     6    17 ar  
    18     6    57 1   
    19     7     8 1   
    20     7    16 1   
    21     7    18 1   
    22     7    58 1   
    23     8     9 1   
    24     8    59 1   
    25     8    60 1   
    26     9    10 1   
    27     9    61 1   
    28     9    62 1   
    29    10    11 ar  
    30    10    15 ar  
    31    11    12 ar  
    32    11    63 1   
    33    12    13 ar  
    34    12    64 1   
    35    13    14 ar  
    36    14    15 ar  
    37    14    65 1   
    38    15    66 1   
    39    16    45 1   
    40    16    48 2   
    41    17    41 ar  
    42    17    67 1   
    43    18    68 1   
    44    18    69 1   
    45    19    20 1   
    46    19    27 1   
    47    19    45 1   
    48    19    70 1   
    49    20    21 1   
    50    20    71 1   
    51    20    72 1   
    52    21    22 1   
    53    21    73 1   
    54    22    74 1   
    55    22    75 1   
    56    22    76 1   
    57    23    24 1   
    58    23    77 1   
    59    23    78 1   
    60    24    25 1   
    61    24    79 1   
    62    24    80 1   
    63    25    44 1   
    64    25    81 1   
    65    25    82 1   
    66    26    29 1   
    67    26    44 1   
    68    26    99 2   
    69    27    49 2   
    70    27    98 1   
    71    28    36 1   
    72    28    44 1   
    73    28    83 1   
    74    28    84 1   
    75    29    36 ar  
    76    29    37 ar  
    77    30    31 ar  
    78    30    35 ar  
    79    30    98 1   
    80    31    32 ar  
    81    31    85 1   
    82    32    33 ar  
    83    32    86 1   
    84    33    34 ar  
    85    33    87 1   
    86    34    35 ar  
    87    34    88 1   
    88    35    89 1   
    89    36    38 ar  
    90    37    40 ar  
    91    37    90 1   
    92    38    39 ar  
    93    38    91 1   
    94    39    40 ar  
    95    39    92 1   
    96    40    93 1   
    97    41    42 ar  
    98    41    50 1   
    99    42    43 ar  
   100    42    94 1   
   101    43    95 1   
   102    45    96 1   
   103    97    98 1   
@<TRIPOS>SUBSTRUCTURE
     1 L04         1 TEMP              0 ****  ****    0 ROOT
