@<TRIPOS>MOLECULE
L05
   49    52     1     0     0
SMALL
No Charge or Current Charge


@<TRIPOS>ATOM
      1 C1           6.2730     3.6000    -0.9860 c3         1 L05       0.147900
      2 O2           5.9160     2.8390     0.1820 os         1 L05      -0.339100
      3 C3           4.8050     2.0220     0.2160 ca         1 L05       0.140100
      4 C4           4.5420     1.3210     1.4040 ca         1 L05      -0.154500
      5 C5           3.4240     0.4720     1.4990 ca         1 L05      -0.078500
      6 C6           2.5500     0.3230     0.4070 ca         1 L05       0.236000
      7 N7           1.4520    -0.5390     0.5130 nu         1 L05      -0.806000
      8 C8           0.1920    -0.5430    -0.0860 cc         1 L05       0.134800
      9 C9          -0.6380    -1.6340    -0.2780 cd         1 L05      -0.252400
     10 C10         -1.8880    -1.1290    -0.9060 c          1 L05       0.596200
     11 O11         -2.8600    -1.7600    -1.2940 o          1 L05      -0.493000
     12 N12         -1.7260     0.2410    -1.0060 n          1 L05      -0.391400
     13 C13         -2.7650     1.1330    -1.5470 c3         1 L05       0.163300
     14 C14         -3.7310     1.6230    -0.4760 ca         1 L05      -0.121300
     15 C15         -3.4610     2.8090     0.2350 ca         1 L05      -0.087500
     16 C16         -4.3480     3.2560     1.2300 ca         1 L05      -0.117000
     17 C17         -5.5090     2.5200     1.5200 ca         1 L05      -0.101000
     18 C18         -5.7820     1.3350     0.8160 ca         1 L05      -0.117000
     19 C19         -4.8950     0.8870    -0.1790 ca         1 L05      -0.087500
     20 C20         -0.5120     0.7020    -0.5360 c          1 L05       0.562200
     21 O21         -0.1470     1.8720    -0.5010 o          1 L05      -0.483000
     22 C22         -0.3240    -3.0730    -0.0720 ca         1 L05      -0.013800
     23 C23         -1.3610    -4.0060     0.1550 ca         1 L05      -0.100500
     24 C24         -1.0800    -5.3680     0.3550 ca         1 L05      -0.110500
     25 C25          0.2450    -5.8260     0.3240 ca         1 L05      -0.108000
     26 C26          1.2870    -4.9180     0.0900 ca         1 L05      -0.110500
     27 C27          1.0060    -3.5540    -0.1070 ca         1 L05      -0.100500
     28 C28          2.8210     1.0150    -0.7890 ca         1 L05      -0.078500
     29 C29          3.9390     1.8640    -0.8880 ca         1 L05      -0.154500
     30 H11          7.1850     4.1800    -0.7980 h1         1 L05       0.042367
     31 H12          6.4630     2.9380    -1.8410 h1         1 L05       0.042367
     32 H13          5.4740     4.3020    -1.2540 h1         1 L05       0.042367
     33 H4           5.2090     1.4360     2.2560 ha         1 L05       0.127000
     34 H5           3.2330    -0.0630     2.4250 ha         1 L05       0.121000
     35 HN7          1.5740    -1.2950     1.1910 hn         1 L05       0.508000
     36 H131        -2.2870     1.9960    -2.0300 h1         1 L05       0.068700
     37 H132        -3.3250     0.6040    -2.3290 h1         1 L05       0.068700
     38 H15         -2.5620     3.3840     0.0200 ha         1 L05       0.123000
     39 H16         -4.1350     4.1720     1.7760 ha         1 L05       0.113500
     40 H17         -6.1950     2.8660     2.2900 ha         1 L05       0.111000
     41 H18         -6.6800     0.7640     1.0410 ha         1 L05       0.113500
     42 H19         -5.1130    -0.0330    -0.7180 ha         1 L05       0.123000
     43 H23         -2.3960    -3.6810     0.2100 ha         1 L05       0.116500
     44 H24         -1.8920    -6.0690     0.5380 ha         1 L05       0.113000
     45 H25          0.4630    -6.8810     0.4760 ha         1 L05       0.113000
     46 H26          2.3160    -5.2710     0.0510 ha         1 L05       0.113000
     47 H27          1.8350    -2.8900    -0.3310 ha         1 L05       0.116500
     48 H28          2.1700     0.8880    -1.6490 ha         1 L05       0.121000
     49 H29          4.1170     2.3840    -1.8250 ha         1 L05       0.127000
@<TRIPOS>BOND
     1     1     2 1   
     2     1    30 1   
     3     1    31 1   
     4     1    32 1   
     5     2     3 1   
     6     3     4 ar  
     7     3    29 ar  
     8     4     5 ar  
     9     4    33 1   
    10     5     6 ar  
    11     5    34 1   
    12     6     7 1   
    13     6    28 ar  
    14     7     8 1   
    15     7    35 1   
    16     8     9 2   
    17     8    20 1   
    18     9    10 1   
    19     9    22 1   
    20    10    11 2   
    21    10    12 1   
    22    12    13 1   
    23    12    20 1   
    24    13    14 1   
    25    13    36 1   
    26    13    37 1   
    27    14    15 ar  
    28    14    19 ar  
    29    15    16 ar  
    30    15    38 1   
    31    16    17 ar  
    32    16    39 1   
    33    17    18 ar  
    34    17    40 1   
    35    18    19 ar  
    36    18    41 1   
    37    19    42 1   
    38    20    21 2   
    39    22    23 ar  
    40    22    27 ar  
    41    23    24 ar  
    42    23    43 1   
    43    24    25 ar  
    44    24    44 1   
    45    25    26 ar  
    46    25    45 1   
    47    26    27 ar  
    48    26    46 1   
    49    27    47 1   
    50    28    29 ar  
    51    28    48 1   
    52    29    49 1   
@<TRIPOS>SUBSTRUCTURE
     1 L05         1 TEMP              0 ****  ****    0 ROOT
