@<TRIPOS>MOLECULE
L05
   49    52     1     0     0
SMALL
abcg2


@<TRIPOS>ATOM
      1 C1           6.0650     3.5920    -1.0450 c3         1 L05       0.147900
      2 O2           5.6470     3.0580     0.1960 os         1 L05      -0.339100
      3 C3           4.6330     2.1730     0.2050 ca         1 L05       0.140100
      4 C4           4.2860     1.6370     1.4470 ca         1 L05      -0.154500
      5 C5           3.2470     0.7330     1.5540 ca         1 L05      -0.078500
      6 C6           2.5430     0.3310     0.4230 ca         1 L05       0.236000
      7 N7           1.5160    -0.6270     0.5520 nu         1 L05      -0.806000
      8 C8           0.3280    -0.6050    -0.0690 cc         1 L05       0.134800
      9 C9          -0.5300    -1.6280    -0.3160 cd         1 L05      -0.252400
     10 C10         -1.7340    -1.0570    -0.9270 c          1 L05       0.596200
     11 O11         -2.7190    -1.6260    -1.3330 o          1 L05      -0.493000
     12 N12         -1.5520     0.3250    -1.0100 n          1 L05      -0.391400
     13 C13         -2.5490     1.2520    -1.5080 c3         1 L05       0.163300
     14 C14         -3.5680     1.6250    -0.4620 ca         1 L05      -0.121300
     15 C15         -3.2960     2.6290     0.4630 ca         1 L05      -0.087500
     16 C16         -4.2260     2.9600     1.4390 ca         1 L05      -0.117000
     17 C17         -5.4430     2.2900     1.4980 ca         1 L05      -0.101000
     18 C18         -5.7230     1.2910     0.5760 ca         1 L05      -0.117000
     19 C19         -4.7890     0.9600    -0.3980 ca         1 L05      -0.087500
     20 C20         -0.3520     0.6860    -0.4680 c          1 L05       0.562200
     21 O21          0.0510     1.8090    -0.3040 o          1 L05      -0.483000
     22 C22         -0.3370    -3.0580    -0.0860 ca         1 L05      -0.013800
     23 C23         -1.3490    -3.8400     0.4750 ca         1 L05      -0.100500
     24 C24         -1.1580    -5.1970     0.6860 ca         1 L05      -0.110500
     25 C25          0.0470    -5.7980     0.3440 ca         1 L05      -0.108000
     26 C26          1.0600    -5.0310    -0.2140 ca         1 L05      -0.110500
     27 C27          0.8700    -3.6740    -0.4300 ca         1 L05      -0.100500
     28 C28          2.9060     0.8400    -0.8150 ca         1 L05      -0.078500
     29 C29          3.9320     1.7670    -0.9290 ca         1 L05      -0.154500
     30 H11          6.8920     4.2630    -0.8290 h1         1 L05       0.042367
     31 H12          6.4120     2.8120    -1.7270 h1         1 L05       0.042367
     32 H13          5.2700     4.1600    -1.5340 h1         1 L05       0.042367
     33 H4           4.8320     1.9430     2.3310 ha         1 L05       0.127000
     34 H5           2.9790     0.3380     2.5260 ha         1 L05       0.121000
     35 HN7          1.7630    -1.4920     1.0140 hn         1 L05       0.508000
     36 H131        -2.0230     2.1370    -1.8670 h1         1 L05       0.068700
     37 H132        -3.0320     0.7950    -2.3710 h1         1 L05       0.068700
     38 H15         -2.3540     3.1620     0.4200 ha         1 L05       0.123000
     39 H16         -4.0050     3.7450     2.1510 ha         1 L05       0.113500
     40 H17         -6.1710     2.5510     2.2540 ha         1 L05       0.111000
     41 H18         -6.6710     0.7690     0.6110 ha         1 L05       0.113500
     42 H19         -5.0130     0.1810    -1.1160 ha         1 L05       0.123000
     43 H23         -2.2870    -3.3840     0.7630 ha         1 L05       0.116500
     44 H24         -1.9530    -5.7870     1.1240 ha         1 L05       0.113000
     45 H25          0.1950    -6.8570     0.5120 ha         1 L05       0.113000
     46 H26          2.0000    -5.4900    -0.4930 ha         1 L05       0.113000
     47 H27          1.6600    -3.0970    -0.8950 ha         1 L05       0.116500
     48 H28          2.3980     0.5070    -1.7120 ha         1 L05       0.121000
     49 H29          4.1800     2.1430    -1.9120 ha         1 L05       0.127000
@<TRIPOS>BOND
     1     1     2 1   
     2     1    30 1   
     3     1    31 1   
     4     1    32 1   
     5     2     3 1   
     6     3     4 ar  
     7     3    29 ar  
     8     4     5 ar  
     9     4    33 1   
    10     5     6 ar  
    11     5    34 1   
    12     6     7 1   
    13     6    28 ar  
    14     7     8 1   
    15     7    35 1   
    16     8     9 2   
    17     8    20 1   
    18     9    10 1   
    19     9    22 1   
    20    10    11 2   
    21    10    12 1   
    22    12    13 1   
    23    12    20 1   
    24    13    14 1   
    25    13    36 1   
    26    13    37 1   
    27    14    15 ar  
    28    14    19 ar  
    29    15    16 ar  
    30    15    38 1   
    31    16    17 ar  
    32    16    39 1   
    33    17    18 ar  
    34    17    40 1   
    35    18    19 ar  
    36    18    41 1   
    37    19    42 1   
    38    20    21 2   
    39    22    23 ar  
    40    22    27 ar  
    41    23    24 ar  
    42    23    43 1   
    43    24    25 ar  
    44    24    44 1   
    45    25    26 ar  
    46    25    45 1   
    47    26    27 ar  
    48    26    46 1   
    49    27    47 1   
    50    28    29 ar  
    51    28    48 1   
    52    29    49 1   
@<TRIPOS>SUBSTRUCTURE
     1 L05         1 TEMP              0 ****  ****    0 ROOT
