@<TRIPOS>MOLECULE
L08
   60    63     1     0     0
SMALL
bcc


@<TRIPOS>ATOM
      1 O4           3.2780     3.9000    -0.4380 o          1 L08      -0.207500
      2 N3           3.4860     2.8140    -0.9260 no         1 L08       0.315200
      3 C11          2.5690     1.7360    -0.6430 ca         1 L08      -0.184200
      4 C10          2.9430     0.4040    -0.8650 ca         1 L08       0.084900
      5 C15          1.9720    -0.5620    -0.5930 ca         1 L08      -0.151000
      6 C14          0.7200    -0.2200    -0.1290 ca         1 L08      -0.065000
      7 C13          0.3640     1.1120     0.0990 cp         1 L08      -0.066000
      8 C12          1.3130     2.0840    -0.1610 ca         1 L08      -0.042000
      9 C16         -0.9780     1.4810     0.5890 cp         1 L08       0.040000
     10 C8          -1.1510     2.5580     1.4620 ca         1 L08      -0.293300
     11 C35         -2.4350     2.8310     1.8880 ca         1 L08       0.455200
     12 N20         -3.5080     2.1470     1.5170 nb         1 L08      -0.742000
     13 C18         -3.3640     1.1270     0.6690 ca         1 L08       0.683200
     14 N1          -4.5110     0.4840     0.2720 nh         1 L08      -0.772300
     15 C19         -5.7180     0.6320     1.0710 c6         1 L08       0.193300
     16 C20         -6.9610     0.4090     0.2280 c6         1 L08       0.088500
     17 N2          -6.8890    -0.8660    -0.4540 n          1 L08      -0.484800
     18 C21         -5.7130    -0.9690    -1.2870 c6         1 L08       0.088500
     19 C22         -4.4460    -0.7580    -0.4720 c6         1 L08       0.193300
     20 C23         -7.7850    -1.8530    -0.2250 c          1 L08       0.677100
     21 O2          -8.7390    -1.7020     0.5270 o          1 L08      -0.599100
     22 C24         -7.5690    -3.1610    -0.9510 c3         1 L08      -0.178100
     23 C17         -2.0910     0.7600     0.1920 ca         1 L08      -0.307300
     24 S1           4.5480    -0.0540    -1.4300 ss         1 L08      -0.030800
     25 C1           4.6230    -1.7650    -0.9970 ca         1 L08      -0.111100
     26 C2           4.6800    -2.1500     0.3530 ca         1 L08       0.190100
     27 C3           4.8420    -3.4980     0.6650 ca         1 L08      -0.232000
     28 C4           4.9640    -4.4350    -0.3530 ca         1 L08      -0.059000
     29 C5           4.9200    -4.0560    -1.6850 ca         1 L08      -0.182000
     30 C6           4.7440    -2.7150    -2.0010 ca         1 L08      -0.040000
     31 O7           4.5510    -1.1710     1.2520 os         1 L08      -0.314900
     32 C9           4.4560    -1.4950     2.6350 c3         1 L08       0.141400
     33 C33          4.2020    -0.2140     3.3910 c3         1 L08      -0.096100
     34 O3           4.4270     2.5710    -1.6500 o          1 L08      -0.207500
     35 H15          2.1950    -1.6070    -0.7510 ha         1 L08       0.151000
     36 H14          0.0120    -1.0140     0.0700 ha         1 L08       0.139000
     37 H12          1.0700     3.1280    -0.0230 ha         1 L08       0.171000
     38 H8          -0.3190     3.1440     1.8250 ha         1 L08       0.149000
     39 H35         -2.6100     3.6490     2.5790 h4         1 L08       0.020100
     40 H191        -5.7120    -0.0830     1.9050 h1         1 L08       0.055950
     41 H192        -5.7480     1.6310     1.4960 h1         1 L08       0.055950
     42 H201        -7.8420     0.4420     0.8630 h1         1 L08       0.064450
     43 H202        -7.0510     1.2070    -0.5170 h1         1 L08       0.064450
     44 H211        -5.6590    -1.9360    -1.7780 h1         1 L08       0.064450
     45 H212        -5.7660    -0.2070    -2.0720 h1         1 L08       0.064450
     46 H221        -3.6160    -0.7390    -1.1750 h1         1 L08       0.055950
     47 H222        -4.2930    -1.6120     0.2020 h1         1 L08       0.055950
     48 H241        -6.6060    -3.6100    -0.7040 hc         1 L08       0.060367
     49 H242        -8.3540    -3.8570    -0.6670 hc         1 L08       0.060367
     50 H243        -7.6010    -3.0310    -2.0340 hc         1 L08       0.060367
     51 H17         -1.9660    -0.0620    -0.4960 ha         1 L08       0.138000
     52 H3           4.8840    -3.8300     1.6940 ha         1 L08       0.139000
     53 H4           5.0950    -5.4770    -0.0910 ha         1 L08       0.133000
     54 H5           5.0140    -4.7920    -2.4720 ha         1 L08       0.140000
     55 H6           4.6940    -2.4000    -3.0350 ha         1 L08       0.147000
     56 H91          5.3820    -1.9700     2.9750 h1         1 L08       0.036700
     57 H92          3.6390    -2.2060     2.7950 h1         1 L08       0.036700
     58 H331         3.2730     0.2570     3.0700 hc         1 L08       0.052033
     59 H332         4.1180    -0.4340     4.4550 hc         1 L08       0.052033
     60 H333         5.0180     0.4960     3.2580 hc         1 L08       0.052033
@<TRIPOS>BOND
     1     1     2 1   
     2     2     3 1   
     3     2    34 1   
     4     3     4 ar  
     5     3     8 ar  
     6     4     5 ar  
     7     4    24 1   
     8     5     6 ar  
     9     5    35 1   
    10     6     7 ar  
    11     6    36 1   
    12     7     8 ar  
    13     7     9 1   
    14     8    37 1   
    15     9    10 ar  
    16     9    23 ar  
    17    10    11 ar  
    18    10    38 1   
    19    11    12 ar  
    20    11    39 1   
    21    12    13 ar  
    22    13    14 1   
    23    13    23 ar  
    24    14    15 1   
    25    14    19 1   
    26    15    16 1   
    27    15    40 1   
    28    15    41 1   
    29    16    17 1   
    30    16    42 1   
    31    16    43 1   
    32    17    18 1   
    33    17    20 1   
    34    18    19 1   
    35    18    44 1   
    36    18    45 1   
    37    19    46 1   
    38    19    47 1   
    39    20    21 2   
    40    20    22 1   
    41    22    48 1   
    42    22    49 1   
    43    22    50 1   
    44    23    51 1   
    45    24    25 1   
    46    25    26 ar  
    47    25    30 ar  
    48    26    27 ar  
    49    26    31 1   
    50    27    28 ar  
    51    27    52 1   
    52    28    29 ar  
    53    28    53 1   
    54    29    30 ar  
    55    29    54 1   
    56    30    55 1   
    57    31    32 1   
    58    32    33 1   
    59    32    56 1   
    60    32    57 1   
    61    33    58 1   
    62    33    59 1   
    63    33    60 1   
@<TRIPOS>SUBSTRUCTURE
     1 L08         1 TEMP              0 ****  ****    0 ROOT
