@<TRIPOS>MOLECULE
L08
   60    63     1     0     0
SMALL
No Charge or Current Charge


@<TRIPOS>ATOM
      1 O4           3.8410     3.1390     0.0630 o          1 L08      -0.397500
      2 N3           3.7370     2.3320    -0.8690 no         1 L08       0.695200
      3 C11          2.6750     1.2880    -0.7630 ca         1 L08      -0.184200
      4 C10          2.8780    -0.0370    -1.2280 ca         1 L08      -0.042000
      5 C15          1.8380    -0.9770    -1.1030 ca         1 L08      -0.133000
      6 C14          0.6140    -0.6190    -0.5160 ca         1 L08      -0.047000
      7 C13          0.3920     0.6910    -0.0300 cp         1 L08      -0.066000
      8 C12          1.4420     1.6330    -0.1640 ca         1 L08      -0.024000
      9 C16         -0.9080     1.0690     0.6080 cp         1 L08       0.040000
     10 C8          -0.9780     1.9950     1.6710 ca         1 L08      -0.210000
     11 C35         -2.2170     2.3130     2.2430 ca         1 L08       0.389900
     12 N20         -3.3810     1.7770     1.8240 nb         1 L08      -0.742000
     13 C18         -3.3390     0.8970     0.8120 ca         1 L08       0.617900
     14 N1          -4.5960     0.3920     0.4230 nh         1 L08      -0.772300
     15 C19         -5.5940    -0.0470     1.4550 c6         1 L08       0.193300
     16 C20         -7.0530     0.0050     0.9230 c6         1 L08       0.088500
     17 N2          -7.1920    -0.7290    -0.3630 n          1 L08      -0.417800
     18 C21         -6.2590    -0.2030    -1.3980 c6         1 L08       0.088500
     19 C22         -4.7820    -0.2550    -0.9150 c6         1 L08       0.193300
     20 C23         -7.8800    -1.9610    -0.4580 c          1 L08       0.610100
     21 O2          -8.4290    -2.4520     0.5190 o          1 L08      -0.599100
     22 C24         -7.9770    -2.6560    -1.8180 c3         1 L08      -0.178100
     23 C17         -2.1370     0.5180     0.1840 ca         1 L08      -0.224000
     24 S1           4.4510    -0.5790    -1.9200 ss         1 L08       0.223000
     25 C1           4.7450    -2.0440    -0.9260 ca         1 L08      -0.238000
     26 C2           4.8280    -1.9610     0.4790 ca         1 L08       0.190100
     27 C3           5.0520    -3.1350     1.2320 ca         1 L08      -0.214000
     28 C4           5.1940    -4.3740     0.5860 ca         1 L08      -0.041000
     29 C5           5.1150    -4.4480    -0.8140 ca         1 L08      -0.164000
     30 C6           4.8930    -3.2860    -1.5700 ca         1 L08      -0.022000
     31 O7           4.6910    -0.7240     1.0760 os         1 L08      -0.338100
     32 C9           4.6270    -0.5590     2.5000 c3         1 L08       0.164600
     33 C33          4.3600     0.9280     2.7790 c3         1 L08      -0.096100
     34 O3           4.3160     2.4640    -1.9540 o          1 L08      -0.397500
     35 H15          1.9830    -1.9970    -1.4500 ha         1 L08       0.133000
     36 H14         -0.1610    -1.3750    -0.4180 ha         1 L08       0.121000
     37 H12          1.2850     2.6520     0.1850 ha         1 L08       0.153000
     38 H8          -0.0810     2.4550     2.0710 ha         1 L08       0.131000
     39 H35         -2.2800     3.0220     3.0680 h4         1 L08       0.020100
     40 H191        -5.3710    -1.0780     1.7670 h1         1 L08       0.055950
     41 H192        -5.5450     0.5790     2.3580 h1         1 L08       0.055950
     42 H201        -7.7330    -0.3970     1.6860 h1         1 L08       0.064450
     43 H202        -7.3350     1.0550     0.7640 h1         1 L08       0.064450
     44 H211        -6.3450    -0.7460    -2.3480 h1         1 L08       0.064450
     45 H212        -6.5230     0.8430    -1.6080 h1         1 L08       0.064450
     46 H221        -4.1630     0.2460    -1.6740 h1         1 L08       0.055950
     47 H222        -4.4600    -1.3060    -0.8680 h1         1 L08       0.055950
     48 H241        -6.9690    -2.9230    -2.1540 hc         1 L08       0.060367
     49 H242        -8.6260    -3.5390    -1.7910 hc         1 L08       0.060367
     50 H243        -8.3070    -1.9350    -2.5730 hc         1 L08       0.060367
     51 H17         -2.1510    -0.1960    -0.6300 ha         1 L08       0.120000
     52 H3           5.1240    -3.1050     2.3150 ha         1 L08       0.121000
     53 H4           5.3680    -5.2770     1.1690 ha         1 L08       0.115000
     54 H5           5.2270    -5.4080    -1.3140 ha         1 L08       0.122000
     55 H6           4.8310    -3.3520    -2.6550 ha         1 L08       0.129000
     56 H91          5.5720    -0.8590     2.9710 h1         1 L08       0.036700
     57 H92          3.8120    -1.1590     2.9260 h1         1 L08       0.036700
     58 H331         3.4050     1.2370     2.3390 hc         1 L08       0.052033
     59 H332         4.3160     1.1100     3.8590 hc         1 L08       0.052033
     60 H333         5.1590     1.5500     2.3570 hc         1 L08       0.052033
@<TRIPOS>BOND
     1     1     2 1   
     2     2     3 1   
     3     2    34 1   
     4     3     4 ar  
     5     3     8 ar  
     6     4     5 ar  
     7     4    24 1   
     8     5     6 ar  
     9     5    35 1   
    10     6     7 ar  
    11     6    36 1   
    12     7     8 ar  
    13     7     9 1   
    14     8    37 1   
    15     9    10 ar  
    16     9    23 ar  
    17    10    11 ar  
    18    10    38 1   
    19    11    12 ar  
    20    11    39 1   
    21    12    13 ar  
    22    13    14 1   
    23    13    23 ar  
    24    14    15 1   
    25    14    19 1   
    26    15    16 1   
    27    15    40 1   
    28    15    41 1   
    29    16    17 1   
    30    16    42 1   
    31    16    43 1   
    32    17    18 1   
    33    17    20 1   
    34    18    19 1   
    35    18    44 1   
    36    18    45 1   
    37    19    46 1   
    38    19    47 1   
    39    20    21 2   
    40    20    22 1   
    41    22    48 1   
    42    22    49 1   
    43    22    50 1   
    44    23    51 1   
    45    24    25 1   
    46    25    26 ar  
    47    25    30 ar  
    48    26    27 ar  
    49    26    31 1   
    50    27    28 ar  
    51    27    52 1   
    52    28    29 ar  
    53    28    53 1   
    54    29    30 ar  
    55    29    54 1   
    56    30    55 1   
    57    31    32 1   
    58    32    33 1   
    59    32    56 1   
    60    32    57 1   
    61    33    58 1   
    62    33    59 1   
    63    33    60 1   
@<TRIPOS>SUBSTRUCTURE
     1 L08         1 TEMP              0 ****  ****    0 ROOT
