@<TRIPOS>MOLECULE
L09
   50    52     1     0     0
SMALL
bcc


@<TRIPOS>ATOM
      1 C1          -1.1950     0.9650     8.3440 c3         1 L09      -0.080100
      2 C2          -0.1350     1.0190     7.2450 c3         1 L09      -0.073300
      3 C3           0.2340     2.4820     6.9750 c3         1 L09      -0.080100
      4 C4           1.1160     0.2610     7.7060 c3         1 L09      -0.080100
      5 C5          -0.6480     0.4020     5.9700 cc         1 L09       0.344600
      6 C6           0.0400     0.3190     4.7370 cc         1 L09      -0.312300
      7 C7          -0.8480    -0.3120     3.8920 cd         1 L09       0.061300
      8 N8          -0.8120    -0.6770     2.5620 ns         1 L09      -0.483100
      9 C9           0.2810    -0.5280     1.7500 c          1 L09       0.808100
     10 O10          1.3530    -0.1140     2.1490 o          1 L09      -0.584100
     11 N11          0.0310    -0.8970     0.4560 ns         1 L09      -0.490100
     12 C12          0.9440    -0.8390    -0.5990 ca         1 L09       0.081600
     13 C13          2.3080    -1.0700    -0.4410 ca         1 L09      -0.125000
     14 C14          3.1390    -1.0270    -1.5480 ca         1 L09      -0.094000
     15 C15          2.6190    -0.7690    -2.8040 ca         1 L09       0.005400
     16 CL16         3.6930    -0.7290    -4.1680 cl         1 L09      -0.110400
     17 C17          1.2580    -0.5470    -2.9900 ca         1 L09      -0.053300
     18 C18          0.7300    -0.2680    -4.3680 c3         1 L09       0.185700
     19 O19         -0.6580    -0.0410    -4.2940 os         1 L09      -0.321900
     20 C20         -1.3250     0.2480    -5.4260 ca         1 L09       0.026800
     21 C21         -2.6910     0.4930    -5.3090 ca         1 L09      -0.130000
     22 C22         -3.4100     0.7950    -6.4480 ca         1 L09      -0.211300
     23 C23         -2.7460     0.8450    -7.6690 ca         1 L09       0.367200
     24 N24         -1.4490     0.6120    -7.7840 nb         1 L09      -0.636000
     25 C25         -0.7480     0.3200    -6.6930 ca         1 L09       0.324200
     26 C26          0.4360    -0.5820    -1.8730 ca         1 L09      -0.150000
     27 N27         -1.9520    -0.5650     4.6200 na         1 L09      -0.052600
     28 N28         -1.8470    -0.1350     5.8840 nd         1 L09      -0.516800
     29 H1C1        -0.8050     1.4200     9.2570 hc         1 L09       0.036811
     30 H1C2        -2.0960     1.5080     8.0590 hc         1 L09       0.036811
     31 H1C3        -1.4850    -0.0600     8.5790 hc         1 L09       0.036811
     32 H3C1        -0.6320     3.0510     6.6330 hc         1 L09       0.036811
     33 H3C2         0.6070     2.9570     7.8850 hc         1 L09       0.036811
     34 H3C3         1.0120     2.5700     6.2150 hc         1 L09       0.036811
     35 H4C1         0.8910    -0.7860     7.9160 hc         1 L09       0.036811
     36 H4C2         1.9030     0.2890     6.9500 hc         1 L09       0.036811
     37 H4C3         1.5160     0.7090     8.6180 hc         1 L09       0.036811
     38 H6           1.0270     0.6730     4.5060 ha         1 L09       0.186000
     39 H8          -1.6550    -1.0790     2.1800 hn         1 L09       0.316500
     40 H11         -0.9300    -1.0420     0.1870 hn         1 L09       0.316500
     41 H13          2.7320    -1.2970     0.5230 ha         1 L09       0.166000
     42 H14          4.1990    -1.2050    -1.4260 ha         1 L09       0.154000
     43 H181         1.2430     0.6050    -4.7880 h1         1 L09       0.057700
     44 H182         0.9490    -1.1190    -5.0250 h1         1 L09       0.057700
     45 H21         -3.1700     0.4470    -4.3390 ha         1 L09       0.146000
     46 H22         -4.4720     0.9900    -6.3940 ha         1 L09       0.143000
     47 H23         -3.2850     1.0810    -8.5790 h4         1 L09       0.023100
     48 H25          0.3100     0.1380    -6.8430 h4         1 L09       0.024100
     49 H26         -0.6250    -0.4020    -1.9870 ha         1 L09       0.148000
     50 H27         -2.7980    -1.0180     4.3140 hn         1 L09       0.313700
@<TRIPOS>BOND
     1     1     2 1   
     2     1    29 1   
     3     1    30 1   
     4     1    31 1   
     5     2     3 1   
     6     2     4 1   
     7     2     5 1   
     8     3    32 1   
     9     3    33 1   
    10     3    34 1   
    11     4    35 1   
    12     4    36 1   
    13     4    37 1   
    14     5     6 1   
    15     5    28 2   
    16     6     7 2   
    17     6    38 1   
    18     7     8 1   
    19     7    27 1   
    20     8     9 1   
    21     8    39 1   
    22     9    10 2   
    23     9    11 1   
    24    11    12 1   
    25    11    40 1   
    26    12    13 ar  
    27    12    26 ar  
    28    13    14 ar  
    29    13    41 1   
    30    14    15 ar  
    31    14    42 1   
    32    15    16 1   
    33    15    17 ar  
    34    17    18 1   
    35    17    26 ar  
    36    18    19 1   
    37    18    43 1   
    38    18    44 1   
    39    19    20 1   
    40    20    21 ar  
    41    20    25 ar  
    42    21    22 ar  
    43    21    45 1   
    44    22    23 ar  
    45    22    46 1   
    46    23    24 ar  
    47    23    47 1   
    48    24    25 ar  
    49    25    48 1   
    50    26    49 1   
    51    27    28 1   
    52    27    50 1   
@<TRIPOS>SUBSTRUCTURE
     1 L09         1 TEMP              0 ****  ****    0 ROOT
