@<TRIPOS>MOLECULE
L09
   50    52     1     0     0
SMALL
No Charge or Current Charge


@<TRIPOS>ATOM
      1 C1          -0.8160     0.5220     8.8990 c3         1 L09      -0.080100
      2 C2           0.0760     0.6590     7.6310 c3         1 L09      -0.073300
      3 C3           0.5240     2.1400     7.5070 c3         1 L09      -0.080100
      4 C4           1.3270    -0.2420     7.8140 c3         1 L09      -0.080100
      5 C5          -0.6730     0.2440     6.3640 cc         1 L09       0.279300
      6 C6          -0.0820     0.2780     5.0880 cc         1 L09      -0.229000
      7 C7          -1.0170    -0.1510     4.2010 cd         1 L09       0.010600
      8 N8          -0.9100    -0.2920     2.8260 ns         1 L09      -0.416100
      9 C9           0.1740    -0.0330     2.0050 c          1 L09       0.674100
     10 O10          1.2480     0.3820     2.4160 o          1 L09      -0.584100
     11 N11         -0.1080    -0.3010     0.6730 ns         1 L09      -0.164000
     12 C12          0.6720    -0.1880    -0.5130 ca         1 L09      -0.011000
     13 C13          2.0000     0.2900    -0.5330 ca         1 L09      -0.107000
     14 C14          2.7030     0.3750    -1.7480 ca         1 L09      -0.076000
     15 C15          2.0940    -0.0140    -2.9510 ca         1 L09       0.097000
     16 Cl16         3.0210     0.1180    -4.4470 cl         1 L09      -0.202000
     17 C17          0.7680    -0.4960    -2.9480 ca         1 L09      -0.053300
     18 C18          0.0770    -0.9250    -4.2380 c3         1 L09       0.208900
     19 O19         -0.4340     0.2490    -4.8970 os         1 L09      -0.345100
     20 C20         -1.1010     0.1750    -6.1060 ca         1 L09       0.092100
     21 C21         -1.5640     1.3670    -6.6860 ca         1 L09      -0.112000
     22 C22         -2.2420     1.2950    -7.9170 ca         1 L09      -0.128000
     23 C23         -2.4350     0.0410    -8.5250 ca         1 L09       0.301900
     24 N24         -1.9950    -1.1180    -7.9780 nb         1 L09      -0.636000
     25 C25         -1.3400    -1.0470    -6.7910 ca         1 L09       0.258900
     26 C26          0.0690    -0.5750    -1.7250 ca         1 L09      -0.132000
     27 N27         -2.1440    -0.4300     4.9770 na         1 L09      -0.052200
     28 N28         -1.9260    -0.1820     6.3340 nd         1 L09      -0.516800
     29 H1C1        -0.2680     0.8230     9.8000 hc         1 L09       0.036811
     30 H1C2        -1.7080     1.1560     8.8230 hc         1 L09       0.036811
     31 H1C3        -1.1450    -0.5150     9.0380 hc         1 L09       0.036811
     32 H3C1        -0.3420     2.7960     7.3550 hc         1 L09       0.036811
     33 H3C2         1.0450     2.4710     8.4150 hc         1 L09       0.036811
     34 H3C3         1.2060     2.2810     6.6610 hc         1 L09       0.036811
     35 H4C1         1.0370    -1.2980     7.8820 hc         1 L09       0.036811
     36 H4C2         2.0210    -0.1370     6.9720 hc         1 L09       0.036811
     37 H4C3         1.8700     0.0200     8.7300 hc         1 L09       0.036811
     38 H6           0.9340     0.5940     4.8850 ha         1 L09       0.168000
     39 H8          -1.7210    -0.6300     2.3220 hn         1 L09       0.316500
     40 H11         -1.0450    -0.6420     0.5060 hn         1 L09       0.150000
     41 H13          2.5070     0.6030     0.3740 ha         1 L09       0.148000
     42 H14          3.7250     0.7460    -1.7560 ha         1 L09       0.136000
     43 H181         0.7880    -1.4580    -4.8820 h1         1 L09       0.057700
     44 H182        -0.7410    -1.6190    -4.0020 h1         1 L09       0.057700
     45 H21         -1.4000     2.3220    -6.1940 ha         1 L09       0.128000
     46 H22         -2.6160     2.1950    -8.3980 ha         1 L09       0.125000
     47 H23         -2.9580    -0.0390    -9.4770 h4         1 L09       0.023100
     48 H25         -1.0040    -2.0000    -6.3870 h4         1 L09       0.024100
     49 H26         -0.9560    -0.9410    -1.7200 ha         1 L09       0.130000
     50 H27         -3.0390    -0.7760     4.6360 hn         1 L09       0.364000
@<TRIPOS>BOND
     1     1     2 1   
     2     1    29 1   
     3     1    30 1   
     4     1    31 1   
     5     2     3 1   
     6     2     4 1   
     7     2     5 1   
     8     3    32 1   
     9     3    33 1   
    10     3    34 1   
    11     4    35 1   
    12     4    36 1   
    13     4    37 1   
    14     5     6 1   
    15     5    28 2   
    16     6     7 2   
    17     6    38 1   
    18     7     8 1   
    19     7    27 1   
    20     8     9 1   
    21     8    39 1   
    22     9    10 2   
    23     9    11 1   
    24    11    12 1   
    25    11    40 1   
    26    12    13 ar  
    27    12    26 ar  
    28    13    14 ar  
    29    13    41 1   
    30    14    15 ar  
    31    14    42 1   
    32    15    16 1   
    33    15    17 ar  
    34    17    18 1   
    35    17    26 ar  
    36    18    19 1   
    37    18    43 1   
    38    18    44 1   
    39    19    20 1   
    40    20    21 ar  
    41    20    25 ar  
    42    21    22 ar  
    43    21    45 1   
    44    22    23 ar  
    45    22    46 1   
    46    23    24 ar  
    47    23    47 1   
    48    24    25 ar  
    49    25    48 1   
    50    26    49 1   
    51    27    28 1   
    52    27    50 1   
@<TRIPOS>SUBSTRUCTURE
     1 L09         1 TEMP              0 ****  ****    0 ROOT
