@<TRIPOS>MOLECULE
L0B
   52    54     1     0     0
SMALL
No Charge or Current Charge


@<TRIPOS>ATOM
      1 O1           2.6480    -0.6570    -2.6700 o          1 L0B      -0.510100
      2 C3           2.9030    -0.7510    -1.4730 c          1 L0B       0.592700
      3 C21         -5.7810     2.5970    -0.0290 ca         1 L0B      -0.112000
      4 C10         -5.2270     2.1010     1.1630 ca         1 L0B      -0.110000
      5 C19         -3.9850     1.4440     1.1430 ca         1 L0B      -0.104000
      6 C17         -3.2850     1.2730    -0.0720 ca         1 L0B      -0.112300
      7 C18         -3.8470     1.7800    -1.2620 ca         1 L0B      -0.104000
      8 C20         -5.0900     2.4370    -1.2410 ca         1 L0B      -0.110000
      9 C11         -0.9480    -1.8720     0.1260 c6         1 L0B       0.184500
     10 C13         -1.1750    -3.2420     0.8320 c6         1 L0B      -0.109400
     11 C15         -0.2990    -4.3510     0.1960 c6         1 L0B      -0.071400
     12 C12          1.1850    -3.9160     0.1040 c6         1 L0B      -0.111400
     13 C9           1.3130    -2.5190    -0.5680 c6         1 L0B       0.190500
     14 N1           0.5010    -1.4940     0.1610 n3         1 L0B      -0.704600
     15 C22          1.0120    -1.1400     1.5180 c3         1 L0B       0.159100
     16 C8           2.7960    -2.1110    -0.7720 c3         1 L0B      -0.168400
     17 C16         -1.9290     0.5640    -0.1150 c3         1 L0B       0.220600
     18 O2          -0.9420     1.4530     0.4180 oh         1 L0B      -0.634000
     19 C4           4.3730     0.3850     0.2810 ca         1 L0B      -0.066000
     20 C1           3.3520     0.4630    -0.6940 ca         1 L0B      -0.169600
     21 C2           2.7500     1.7140    -0.9550 ca         1 L0B      -0.066000
     22 C5           3.1480     2.8590    -0.2440 ca         1 L0B      -0.125000
     23 C6           4.1560     2.7690     0.7300 ca         1 L0B      -0.087000
     24 C7           4.7680     1.5330     0.9890 ca         1 L0B      -0.125000
     25 H81C         3.2800    -2.8600    -1.4080 hc         1 L0B       0.060700
     26 H82C         3.3000    -2.0930     0.1970 hc         1 L0B       0.060700
     27 H2           1.9630     1.7950    -1.7010 ha         1 L0B       0.123000
     28 H4           4.8770    -0.5570     0.4860 ha         1 L0B       0.123000
     29 H5           2.6720     3.8160    -0.4470 ha         1 L0B       0.115000
     30 H6           4.4630     3.6570     1.2790 ha         1 L0B       0.113000
     31 H7           5.5550     1.4640     1.7370 ha         1 L0B       0.115000
     32 H9           0.8990    -2.6210    -1.5840 h1         1 L0B       0.073700
     33 H121         1.6360    -3.9050     1.1050 hc         1 L0B       0.043200
     34 H122         1.7450    -4.6620    -0.4760 hc         1 L0B       0.043200
     35 H151        -0.3850    -5.2800     0.7750 hc         1 L0B       0.041200
     36 H152        -0.6740    -4.5760    -0.8120 hc         1 L0B       0.041200
     37 H131        -0.9600    -3.1620     1.9060 hc         1 L0B       0.044200
     38 H132        -2.2320    -3.5320     0.7540 hc         1 L0B       0.044200
     39 H11         -1.2330    -2.0180    -0.9280 h1         1 L0B       0.056700
     40 H141        -2.9450    -1.1980     0.5770 hc         1 L0B       0.045700
     41 H142        -1.7850    -0.6060     1.7320 hc         1 L0B       0.045700
     42 H221         0.9930    -2.0010     2.1980 h1         1 L0B       0.027367
     43 H222         2.0420    -0.7700     1.4720 h1         1 L0B       0.027367
     44 H223         0.4150    -0.3410     1.9730 h1         1 L0B       0.027367
     45 H16         -1.6970     0.3380    -1.1660 h1         1 L0B       0.096700
     46 HA          -1.3000     1.7830     1.2670 ho         1 L0B       0.429000
     47 H18         -3.3210     1.6650    -2.2080 ha         1 L0B       0.112000
     48 H19         -3.5700     1.0680     2.0760 ha         1 L0B       0.112000
     49 H20         -5.5160     2.8230    -2.1640 ha         1 L0B       0.110500
     50 H10         -5.7600     2.2260     2.1030 ha         1 L0B       0.110500
     51 C14         -1.9330    -0.7830     0.6610 c3         1 L0B      -0.099400
     52 H21         -6.7420     3.1050    -0.0130 ha         1 L0B       0.111000
@<TRIPOS>BOND
     1     1     2 2   
     2     2    16 1   
     3     2    20 1   
     4     3     4 ar  
     5     3     8 ar  
     6     3    52 1   
     7     4     5 ar  
     8     4    50 1   
     9     5     6 ar  
    10     5    48 1   
    11     6     7 ar  
    12     6    17 1   
    13     7     8 ar  
    14     7    47 1   
    15     8    49 1   
    16     9    10 1   
    17     9    14 1   
    18     9    39 1   
    19     9    51 1   
    20    10    11 1   
    21    10    37 1   
    22    10    38 1   
    23    11    12 1   
    24    11    35 1   
    25    11    36 1   
    26    12    13 1   
    27    12    33 1   
    28    12    34 1   
    29    13    14 1   
    30    13    16 1   
    31    13    32 1   
    32    14    15 1   
    33    15    42 1   
    34    15    43 1   
    35    15    44 1   
    36    16    25 1   
    37    16    26 1   
    38    17    18 1   
    39    17    45 1   
    40    17    51 1   
    41    18    46 1   
    42    19    20 ar  
    43    19    24 ar  
    44    19    28 1   
    45    20    21 ar  
    46    21    22 ar  
    47    21    27 1   
    48    22    23 ar  
    49    22    29 1   
    50    23    24 ar  
    51    23    30 1   
    52    24    31 1   
    53    40    51 1   
    54    41    51 1   
@<TRIPOS>SUBSTRUCTURE
     1 L0B         1 TEMP              0 ****  ****    0 ROOT
