@<TRIPOS>MOLECULE
L0B
   52    54     1     0     0
SMALL
bcc


@<TRIPOS>ATOM
      1 O1           1.8330     0.3220    -1.7530 o          1 L0B      -0.510100
      2 C3           2.6040    -0.0980    -0.9170 c          1 L0B       0.592700
      3 C21         -6.1700     2.1540    -0.3240 ca         1 L0B      -0.130000
      4 C10         -5.3680     2.6210     0.7060 ca         1 L0B      -0.128000
      5 C19         -4.0870     2.1080     0.8900 ca         1 L0B      -0.122000
      6 C17         -3.5950     1.1120     0.0540 ca         1 L0B      -0.112300
      7 C18         -4.4080     0.6550    -0.9840 ca         1 L0B      -0.122000
      8 C20         -5.6810     1.1680    -1.1740 ca         1 L0B      -0.128000
      9 C11         -1.1890    -1.8460     0.0730 c6         1 L0B       0.184500
     10 C13         -1.3360    -3.3140     0.4840 c6         1 L0B      -0.109400
     11 C15         -0.3110    -4.1700    -0.2590 c6         1 L0B      -0.071400
     12 C12          1.1010    -3.5950    -0.1470 c6         1 L0B      -0.111400
     13 C9           1.1070    -2.1030    -0.4950 c6         1 L0B       0.190500
     14 N1           0.1570    -1.3410     0.3080 n3         1 L0B      -0.704600
     15 C22          0.5310    -1.2260     1.7030 c3         1 L0B       0.159100
     16 C8           2.5100    -1.5180    -0.4090 c3         1 L0B      -0.168400
     17 C16         -2.2090     0.5130     0.2290 c3         1 L0B       0.197400
     18 O2          -1.4040     1.2850     1.0860 oh         1 L0B      -0.571800
     19 C4           4.7770     0.2700     0.3190 ca         1 L0B      -0.084000
     20 C1           3.7000     0.7770    -0.4070 ca         1 L0B      -0.169600
     21 C2           3.6640     2.1420    -0.7000 ca         1 L0B      -0.084000
     22 C5           4.6760     2.9820    -0.2660 ca         1 L0B      -0.143000
     23 C6           5.7480     2.4660     0.4530 ca         1 L0B      -0.105000
     24 C7           5.7990     1.1090     0.7400 ca         1 L0B      -0.143000
     25 H81C         3.1850    -2.1210    -1.0290 hc         1 L0B       0.060700
     26 H82C         2.9020    -1.6050     0.6050 hc         1 L0B       0.060700
     27 H2           2.8340     2.5490    -1.2630 ha         1 L0B       0.141000
     28 H4           4.8400    -0.7850     0.5510 ha         1 L0B       0.141000
     29 H5           4.6330     4.0390    -0.4920 ha         1 L0B       0.133000
     30 H6           6.5420     3.1200     0.7870 ha         1 L0B       0.131000
     31 H7           6.6350     0.7010     1.2930 ha         1 L0B       0.133000
     32 H9           0.7750    -2.0060    -1.5350 h1         1 L0B       0.073700
     33 H121         1.4870    -3.7480     0.8660 hc         1 L0B       0.043200
     34 H122         1.7790    -4.1330    -0.8160 hc         1 L0B       0.043200
     35 H151        -0.3300    -5.1980     0.1100 hc         1 L0B       0.041200
     36 H152        -0.5930    -4.2190    -1.3160 hc         1 L0B       0.041200
     37 H131        -1.2020    -3.4100     1.5670 hc         1 L0B       0.044200
     38 H132        -2.3470    -3.6690     0.2650 hc         1 L0B       0.044200
     39 H11         -1.3230    -1.8040    -1.0180 h1         1 L0B       0.056700
     40 H141        -3.2360    -1.3870     0.2860 hc         1 L0B       0.045700
     41 H142        -2.3550    -1.0400     1.7410 hc         1 L0B       0.045700
     42 H221         0.8400    -2.1630     2.1830 h1         1 L0B       0.027367
     43 H222         1.3480    -0.5120     1.8240 h1         1 L0B       0.027367
     44 H223        -0.3000    -0.8350     2.2850 h1         1 L0B       0.027367
     45 H16         -1.7070     0.5510    -0.7430 h1         1 L0B       0.096700
     46 HA          -1.6730     1.1200     1.9960 ho         1 L0B       0.390000
     47 H18         -4.0370    -0.1120    -1.6550 ha         1 L0B       0.130000
     48 H19         -3.4770     2.5040     1.6900 ha         1 L0B       0.130000
     49 H20         -6.2940     0.7980    -1.9870 ha         1 L0B       0.128500
     50 H10         -5.7350     3.3920     1.3710 ha         1 L0B       0.128500
     51 C14         -2.2950    -0.9650     0.6480 c3         1 L0B      -0.099400
     52 H21         -7.1640     2.5560    -0.4690 ha         1 L0B       0.129000
@<TRIPOS>BOND
     1     1     2 2   
     2     2    16 1   
     3     2    20 1   
     4     3     4 ar  
     5     3     8 ar  
     6     3    52 1   
     7     4     5 ar  
     8     4    50 1   
     9     5     6 ar  
    10     5    48 1   
    11     6     7 ar  
    12     6    17 1   
    13     7     8 ar  
    14     7    47 1   
    15     8    49 1   
    16     9    10 1   
    17     9    14 1   
    18     9    39 1   
    19     9    51 1   
    20    10    11 1   
    21    10    37 1   
    22    10    38 1   
    23    11    12 1   
    24    11    35 1   
    25    11    36 1   
    26    12    13 1   
    27    12    33 1   
    28    12    34 1   
    29    13    14 1   
    30    13    16 1   
    31    13    32 1   
    32    14    15 1   
    33    15    42 1   
    34    15    43 1   
    35    15    44 1   
    36    16    25 1   
    37    16    26 1   
    38    17    18 1   
    39    17    45 1   
    40    17    51 1   
    41    18    46 1   
    42    19    20 ar  
    43    19    24 ar  
    44    19    28 1   
    45    20    21 ar  
    46    21    22 ar  
    47    21    27 1   
    48    22    23 ar  
    49    22    29 1   
    50    23    24 ar  
    51    23    30 1   
    52    24    31 1   
    53    40    51 1   
    54    41    51 1   
@<TRIPOS>SUBSTRUCTURE
     1 L0B         1 TEMP              0 ****  ****    0 ROOT
