@<TRIPOS>MOLECULE
L0C
   53    57     1     0     0
SMALL
abcg2


@<TRIPOS>ATOM
      1 F1           7.7380    27.8100     0.8820 f          1 L0C      -0.168000
      2 C2           7.3800    28.1890     2.1150 ca         1 L0C       0.203000
      3 C3           6.7010    29.3810     2.2760 ca         1 L0C      -0.164000
      4 C4           6.3350    29.7670     3.5550 ca         1 L0C      -0.041000
      5 C5           6.6470    28.9730     4.6590 ca         1 L0C      -0.171600
      6 C6           7.3440    27.7830     4.4570 ca         1 L0C      -0.041000
      7 C7           7.7100    27.3780     3.1850 ca         1 L0C      -0.164000
      8 C8           6.3100    29.3540     6.0600 c          1 L0C       0.626700
      9 O9           6.8880    28.8640     7.0170 o          1 L0C      -0.587100
     10 N10          5.3240    30.2670     6.1990 ns         1 L0C      -0.378100
     11 C11          4.9150    30.8200     7.3990 cc         1 L0C       0.014600
     12 C12          5.2970    30.5860     8.7030 cd         1 L0C      -0.181000
     13 N13          4.5630    31.4370     9.4510 na         1 L0C       0.035800
     14 N15          3.7450    32.1950     8.7580 nd         1 L0C      -0.508800
     15 C16          3.9400    31.8380     7.4970 cc         1 L0C       0.144700
     16 C17          3.2290    32.4410     6.3960 cc         1 L0C       0.458800
     17 N18          3.3770    32.0630     5.1480 nd         1 L0C      -0.617100
     18 C19          2.5410    32.8710     4.4250 ca         1 L0C       0.125400
     19 C20          2.2810    32.9060     3.0570 ca         1 L0C      -0.042000
     20 C21          1.3690    33.8360     2.5970 ca         1 L0C      -0.112000
     21 C22          0.7160    34.7270     3.4660 ca         1 L0C      -0.178300
     22 C23         -0.2540    35.7270     2.9200 c3         1 L0C       0.165900
     23 N24          0.3630    37.0890     2.7640 nx         1 L0C      -0.666000
     24 C26         -0.6660    38.0950     2.3650 c6         1 L0C       0.053600
     25 C27         -0.0260    39.4560     2.1860 c6         1 L0C       0.125100
     26 O28          1.0140    39.4170     1.2420 os         1 L0C      -0.399000
     27 C29          2.0220    38.5260     1.6480 c6         1 L0C       0.125100
     28 C30          1.4990    37.1110     1.7970 c6         1 L0C       0.053600
     29 C31          0.9600    34.6950     4.8330 ca         1 L0C      -0.074000
     30 C32          1.8760    33.7610     5.2880 ca         1 L0C      -0.093200
     31 N33          2.3410    33.4540     6.5380 na         1 L0C      -0.286600
     32 H14          4.5960    31.5250    10.4540 hn         1 L0C       0.390000
     33 H25          0.7270    37.3640     3.6810 hn         1 L0C       0.494000
     34 H34          2.0880    33.9000     7.4060 hn         1 L0C       0.385000
     35 H35          6.4690    30.0030     1.4220 ha         1 L0C       0.138500
     36 H36          5.8260    30.7170     3.6640 ha         1 L0C       0.130000
     37 H37          7.6010    27.1590     5.3020 ha         1 L0C       0.130000
     38 H38          8.2450    26.4510     3.0290 ha         1 L0C       0.138500
     39 H39          4.8020    30.6050     5.3970 hn         1 L0C       0.361500
     40 H40          6.0030    29.9090     9.1450 h4         1 L0C       0.198000
     41 H41          2.7740    32.2230     2.3780 ha         1 L0C       0.150000
     42 H42          1.1450    33.8790     1.5380 ha         1 L0C       0.119000
     43 H43         -0.6270    35.4420     1.9370 hx         1 L0C       0.096700
     44 H44         -1.1070    35.8610     3.5850 hx         1 L0C       0.096700
     45 H45         -1.1150    37.7400     1.4370 hx         1 L0C       0.108700
     46 H46         -1.4280    38.1240     3.1420 hx         1 L0C       0.108700
     47 H47         -0.7870    40.1490     1.8270 h1         1 L0C       0.089450
     48 H48          0.3340    39.8280     3.1550 h1         1 L0C       0.089450
     49 H49          2.8030    38.5250     0.8880 h1         1 L0C       0.089450
     50 H50          2.4770    38.8520     2.5940 h1         1 L0C       0.089450
     51 H51          1.1230    36.7200     0.8520 hx         1 L0C       0.108700
     52 H52          2.2840    36.4560     2.1690 hx         1 L0C       0.108700
     53 H53          0.4480    35.3640     5.5150 ha         1 L0C       0.118000
@<TRIPOS>BOND
     1     1     2 1   
     2     2     3 ar  
     3     2     7 ar  
     4     3     4 ar  
     5     3    35 1   
     6     4     5 ar  
     7     4    36 1   
     8     5     6 ar  
     9     5     8 1   
    10     6     7 ar  
    11     6    37 1   
    12     7    38 1   
    13     8     9 2   
    14     8    10 1   
    15    10    11 1   
    16    10    39 1   
    17    11    12 2   
    18    11    15 1   
    19    12    13 1   
    20    12    40 1   
    21    13    14 1   
    22    13    32 1   
    23    14    15 2   
    24    15    16 1   
    25    16    17 2   
    26    16    31 1   
    27    17    18 1   
    28    18    19 ar  
    29    18    30 ar  
    30    19    20 ar  
    31    19    41 1   
    32    20    21 ar  
    33    20    42 1   
    34    21    22 1   
    35    21    29 ar  
    36    22    23 1   
    37    22    43 1   
    38    22    44 1   
    39    23    24 1   
    40    23    28 1   
    41    23    33 1   
    42    24    25 1   
    43    24    45 1   
    44    24    46 1   
    45    25    26 1   
    46    25    47 1   
    47    25    48 1   
    48    26    27 1   
    49    27    28 1   
    50    27    49 1   
    51    27    50 1   
    52    28    51 1   
    53    28    52 1   
    54    29    30 ar  
    55    29    53 1   
    56    30    31 1   
    57    31    34 1   
@<TRIPOS>SUBSTRUCTURE
     1 L0C         1 TEMP              0 ****  ****    0 ROOT
