@<TRIPOS>MOLECULE
L0C
   53    57     1     0     0
SMALL
No Charge or Current Charge


@<TRIPOS>ATOM
      1 F1           7.6300    27.6050     0.8780 f          1 L0C      -0.168000
      2 C2           7.3220    28.0080     2.1300 ca         1 L0C       0.203000
      3 C3           6.3550    29.0020     2.3260 ca         1 L0C      -0.164000
      4 C4           6.0300    29.4260     3.6270 ca         1 L0C      -0.041000
      5 C5           6.6770    28.8530     4.7530 ca         1 L0C      -0.171600
      6 C6           7.6520    27.8500     4.5320 ca         1 L0C      -0.041000
      7 C7           7.9710    27.4310     3.2290 ca         1 L0C      -0.164000
      8 C8           6.3630    29.2750     6.1770 c          1 L0C       0.626700
      9 O9           6.9340    28.7670     7.1330 o          1 L0C      -0.587100
     10 N10          5.4030    30.2590     6.3270 ns         1 L0C      -0.378100
     11 C11          4.9060    30.8480     7.4890 cc         1 L0C       0.014600
     12 C12          5.2720    30.5700     8.7720 cd         1 L0C      -0.181000
     13 N13          4.4900    31.4200     9.5640 na         1 L0C       0.035800
     14 N15          3.6410    32.2260     8.8040 nd         1 L0C      -0.508800
     15 C16          3.9150    31.8570     7.5580 cc         1 L0C       0.144700
     16 C17          3.2970    32.3970     6.3590 cc         1 L0C       0.458800
     17 N18          3.5210    32.0750     5.0610 nd         1 L0C      -0.617100
     18 C19          2.6510    32.9050     4.3570 ca         1 L0C       0.125400
     19 C20          2.4710    32.9880     2.9700 ca         1 L0C      -0.042000
     20 C21          1.5250    33.9110     2.4710 ca         1 L0C      -0.112000
     21 C22          0.7800    34.7310     3.3570 ca         1 L0C      -0.178300
     22 C23         -0.2210    35.7270     2.8100 c3         1 L0C       0.165900
     23 N24          0.3510    37.1310     2.7070 nx         1 L0C      -0.666000
     24 C26         -0.7410    38.2090     2.5230 c6         1 L0C       0.053600
     25 C27         -0.1170    39.6210     2.3770 c6         1 L0C       0.125100
     26 O28          0.8490    39.6270     1.3000 os         1 L0C      -0.399000
     27 C29          1.9540    38.7140     1.5020 c6         1 L0C       0.125100
     28 C30          1.4280    37.2600     1.6050 c6         1 L0C       0.053600
     29 C31          0.9820    34.6270     4.7500 ca         1 L0C      -0.074000
     30 C32          1.9290    33.6990     5.2000 ca         1 L0C      -0.093200
     31 N33          2.3250    33.3900     6.4650 na         1 L0C      -0.286600
     32 H14          4.5070    31.4780    10.5830 hn         1 L0C       0.390000
     33 H25          0.8190    37.3090     3.6250 hn         1 L0C       0.494000
     34 H34          1.9950    33.7870     7.3340 hn         1 L0C       0.385000
     35 H35          5.8560    29.4440     1.4670 ha         1 L0C       0.138500
     36 H36          5.2740    30.2000     3.7330 ha         1 L0C       0.130000
     37 H37          8.1680    27.3890     5.3730 ha         1 L0C       0.130000
     38 H38          8.7210    26.6600     3.0700 ha         1 L0C       0.138500
     39 H39          5.0110    30.5930     5.4550 hn         1 L0C       0.361500
     40 H40          5.9910    29.8710     9.1850 h4         1 L0C       0.198000
     41 H41          3.0460    32.3560     2.2990 ha         1 L0C       0.150000
     42 H42          1.3730    33.9910     1.3960 ha         1 L0C       0.119000
     43 H43         -0.5660    35.4210     1.8190 hx         1 L0C       0.096700
     44 H44         -1.0950    35.7610     3.4660 hx         1 L0C       0.096700
     45 H45         -1.3080    37.9540     1.6220 hx         1 L0C       0.108700
     46 H46         -1.4260    38.1650     3.3770 hx         1 L0C       0.108700
     47 H47         -0.9050    40.3560     2.1580 h1         1 L0C       0.089450
     48 H48          0.3740    39.9200     3.3140 h1         1 L0C       0.089450
     49 H49          2.6510    38.7990     0.6560 h1         1 L0C       0.089450
     50 H50          2.4970    38.9890     2.4180 h1         1 L0C       0.089450
     51 H51          0.9690    36.9570     0.6590 hx         1 L0C       0.108700
     52 H52          2.2390    36.5580     1.8280 hx         1 L0C       0.108700
     53 H53          0.4240    35.2440     5.4520 ha         1 L0C       0.118000
@<TRIPOS>BOND
     1     1     2 1   
     2     2     3 ar  
     3     2     7 ar  
     4     3     4 ar  
     5     3    35 1   
     6     4     5 ar  
     7     4    36 1   
     8     5     6 ar  
     9     5     8 1   
    10     6     7 ar  
    11     6    37 1   
    12     7    38 1   
    13     8     9 2   
    14     8    10 1   
    15    10    11 1   
    16    10    39 1   
    17    11    12 2   
    18    11    15 1   
    19    12    13 1   
    20    12    40 1   
    21    13    14 1   
    22    13    32 1   
    23    14    15 2   
    24    15    16 1   
    25    16    17 2   
    26    16    31 1   
    27    17    18 1   
    28    18    19 ar  
    29    18    30 ar  
    30    19    20 ar  
    31    19    41 1   
    32    20    21 ar  
    33    20    42 1   
    34    21    22 1   
    35    21    29 ar  
    36    22    23 1   
    37    22    43 1   
    38    22    44 1   
    39    23    24 1   
    40    23    28 1   
    41    23    33 1   
    42    24    25 1   
    43    24    45 1   
    44    24    46 1   
    45    25    26 1   
    46    25    47 1   
    47    25    48 1   
    48    26    27 1   
    49    27    28 1   
    50    27    49 1   
    51    27    50 1   
    52    28    51 1   
    53    28    52 1   
    54    29    30 ar  
    55    29    53 1   
    56    30    31 1   
    57    31    34 1   
@<TRIPOS>SUBSTRUCTURE
     1 L0C         1 TEMP              0 ****  ****    0 ROOT
