@<TRIPOS>MOLECULE
L0D
   22    24     1     0     0
SMALL
bcc


@<TRIPOS>ATOM
      1 C1           4.0760    -0.6480    -0.0240 cc         1 L0D      -0.149300
      2 C2           2.8240    -1.2120    -0.0190 cd         1 L0D      -0.253300
      3 C3           1.9530    -0.1070    -0.0170 cd         1 L0D       0.299000
      4 N4           2.6220     1.0370    -0.0200 nc         1 L0D      -0.535800
      5 N5           3.8930     0.6840    -0.0240 na         1 L0D       0.009400
      6 C7           0.5040    -0.1150    -0.0120 cd         1 L0D       0.381800
      7 N8          -0.2400    -1.1900    -0.0100 nc         1 L0D      -0.570100
      8 C9          -1.5330    -0.7290    -0.0060 ca         1 L0D       0.068400
      9 C10         -2.7380    -1.4310    -0.0030 ca         1 L0D      -0.067000
     10 C11         -3.9140    -0.7020    -0.0010 ca         1 L0D      -0.155000
     11 C12         -3.9040     0.7020    -0.0010 ca         1 L0D      -0.112000
     12 C13         -2.7190     1.4180    -0.0030 ca         1 L0D      -0.133000
     13 C14         -1.5430     0.6780    -0.0060 ca         1 L0D      -0.078200
     14 N15         -0.2220     1.0330    -0.0100 na         1 L0D      -0.247300
     15 HN5          4.6090     1.3940    -0.0270 hn         1 L0D       0.323700
     16 HN15         0.1560     1.9680    -0.0150 hn         1 L0D       0.318700
     17 H1           5.0600    -1.0870    -0.0260 h4         1 L0D       0.177000
     18 H2           2.5700    -2.2580    -0.0180 ha         1 L0D       0.183000
     19 H10         -2.7500    -2.5130    -0.0030 ha         1 L0D       0.145000
     20 H11         -4.8630    -1.2220     0.0010 ha         1 L0D       0.131000
     21 H12         -4.8450     1.2370     0.0020 ha         1 L0D       0.129000
     22 H13         -2.7140     2.5000    -0.0020 ha         1 L0D       0.134000
@<TRIPOS>BOND
     1     1     2 2   
     2     1     5 1   
     3     1    17 1   
     4     2     3 1   
     5     2    18 1   
     6     3     4 2   
     7     3     6 1   
     8     4     5 1   
     9     5    15 1   
    10     6     7 2   
    11     6    14 1   
    12     7     8 1   
    13     8     9 ar  
    14     8    13 ar  
    15     9    10 ar  
    16     9    19 1   
    17    10    11 ar  
    18    10    20 1   
    19    11    12 ar  
    20    11    21 1   
    21    12    13 ar  
    22    12    22 1   
    23    13    14 1   
    24    14    16 1   
@<TRIPOS>SUBSTRUCTURE
     1 L0D         1 TEMP              0 ****  ****    0 ROOT
