@<TRIPOS>MOLECULE
L0D
   22    24     1     0     0
SMALL
No Charge or Current Charge


@<TRIPOS>ATOM
      1 C1           4.0870    -0.7270    -0.0240 cc         1 L0D      -0.182000
      2 C2           2.7870    -1.1470    -0.0200 cd         1 L0D      -0.170000
      3 C3           1.9650     0.0020    -0.0170 cd         1 L0D       0.233700
      4 N4           2.6720     1.1260    -0.0200 nc         1 L0D      -0.535800
      5 N5           3.9830     0.6650    -0.0240 na         1 L0D       0.009800
      6 C7           0.5120    -0.0540    -0.0130 cd         1 L0D       0.381800
      7 N8          -0.2180    -1.1930    -0.0110 nc         1 L0D      -0.570100
      8 C9          -1.5150    -0.7080    -0.0070 ca         1 L0D       0.068400
      9 C10         -2.7100    -1.4440    -0.0030 ca         1 L0D      -0.049000
     10 C11         -3.9360    -0.7420     0.0000 ca         1 L0D      -0.137000
     11 C12         -3.9490     0.6730    -0.0000 ca         1 L0D      -0.094000
     12 C13         -2.7370     1.3920    -0.0040 ca         1 L0D      -0.115000
     13 C14         -1.5430     0.6600    -0.0070 ca         1 L0D      -0.078200
     14 N15         -0.2560     1.1210    -0.0110 na         1 L0D      -0.297600
     15 HN5          4.7680     1.3170    -0.0260 hn         1 L0D       0.374000
     16 HN15         0.0900     2.0720    -0.0120 hn         1 L0D       0.369000
     17 H1           5.0290    -1.2640    -0.0260 h4         1 L0D       0.159000
     18 H2           2.4440    -2.1770    -0.0180 ha         1 L0D       0.165000
     19 H10         -2.6900    -2.5310    -0.0030 ha         1 L0D       0.127000
     20 H11         -4.8740    -1.2920     0.0030 ha         1 L0D       0.113000
     21 H12         -4.8970     1.2070     0.0020 ha         1 L0D       0.111000
     22 H13         -2.7310     2.4800    -0.0040 ha         1 L0D       0.116000
@<TRIPOS>BOND
     1     1     2 2   
     2     1     5 1   
     3     1    17 1   
     4     2     3 1   
     5     2    18 1   
     6     3     4 2   
     7     3     6 1   
     8     4     5 1   
     9     5    15 1   
    10     6     7 2   
    11     6    14 1   
    12     7     8 1   
    13     8     9 ar  
    14     8    13 ar  
    15     9    10 ar  
    16     9    19 1   
    17    10    11 ar  
    18    10    20 1   
    19    11    12 ar  
    20    11    21 1   
    21    12    13 ar  
    22    12    22 1   
    23    13    14 1   
    24    14    16 1   
@<TRIPOS>SUBSTRUCTURE
     1 L0D         1 TEMP              0 ****  ****    0 ROOT
