@<TRIPOS>MOLECULE
L0E
   55    59     1     0     0
SMALL
abcg2


@<TRIPOS>ATOM
      1 O1           6.7780    28.3040     7.3570 o          1 L0E      -0.617100
      2 C2           6.3390    28.8520     6.3570 c          1 L0E       0.670100
      3 N3           5.4360    29.8680     6.4090 ns         1 L0E      -0.397100
      4 C4           4.9930    30.4630     7.5750 cc         1 L0E       0.024600
      5 C5           5.2550    30.2080     8.9050 cd         1 L0E      -0.186000
      6 N6           4.5480    31.1290     9.5960 na         1 L0E       0.035800
      7 N8           3.8540    31.9500     8.8450 nd         1 L0E      -0.502800
      8 C9           4.1080    31.5650     7.6020 cc         1 L0E       0.145700
      9 C10          3.5410    32.2150     6.4460 cc         1 L0E       0.446800
     10 N11          3.7340    31.7830     5.2250 nd         1 L0E      -0.614100
     11 C12          3.0620    32.6620     4.4190 ca         1 L0E       0.084400
     12 C13          2.9300    32.6820     3.0360 ca         1 L0E      -0.023000
     13 C14          2.1920    33.7070     2.4610 ca         1 L0E      -0.195300
     14 C15          2.0320    33.7600     0.9740 c3         1 L0E       0.173900
     15 N16          3.1030    34.5590     0.2730 nx         1 L0E      -0.664000
     16 C18          4.4710    33.9830     0.4230 c6         1 L0E       0.052600
     17 C19          5.4630    34.8110    -0.3730 c6         1 L0E       0.124600
     18 O20          5.4500    36.1560     0.0330 os         1 L0E      -0.399000
     19 C21          4.1800    36.7270    -0.1600 c6         1 L0E       0.124600
     20 C22          3.1160    36.0030     0.6440 c6         1 L0E       0.052600
     21 C23          1.5700    34.6770     3.2680 ca         1 L0E      -0.095000
     22 C24          1.6830    34.6690     4.6460 ca         1 L0E      -0.083000
     23 C25          2.4440    33.6510     5.2050 ca         1 L0E      -0.055200
     24 N26          2.7710    33.3310     6.4940 na         1 L0E      -0.281600
     25 N28          6.7220    28.4670     5.1010 ns         1 L0E      -0.182000
     26 C29          6.3520    29.0540     3.8750 ca         1 L0E      -0.025000
     27 C30          5.7490    28.2720     2.8930 ca         1 L0E      -0.119000
     28 C31          5.4180    28.8290     1.6660 ca         1 L0E      -0.095500
     29 C32          5.6670    30.1720     1.4160 ca         1 L0E      -0.143000
     30 C33          6.2650    30.9520     2.3950 ca         1 L0E      -0.095500
     31 C34          6.6200    30.3970     3.6160 ca         1 L0E      -0.119000
     32 H7           4.5140    31.2210    10.6000 hn         1 L0E       0.390000
     33 H17          2.8600    34.5020    -0.7190 hn         1 L0E       0.487000
     34 H27          2.5090    33.8340     7.3280 hn         1 L0E       0.389000
     35 H35          5.0210    30.2560     5.5640 hn         1 L0E       0.366500
     36 H36          5.8620    29.4730     9.3990 h4         1 L0E       0.197000
     37 H37          3.3900    31.9060     2.4360 ha         1 L0E       0.134000
     38 H38          2.0750    32.7670     0.5310 hx         1 L0E       0.093700
     39 H39          1.0880    34.2180     0.6830 hx         1 L0E       0.093700
     40 H40          4.4450    32.9580     0.0560 hx         1 L0E       0.110950
     41 H41          4.7140    33.9880     1.4840 hx         1 L0E       0.110950
     42 H42          5.2460    34.7210    -1.4460 h1         1 L0E       0.087950
     43 H43          6.4630    34.4140    -0.2030 h1         1 L0E       0.087950
     44 H44          3.9090    36.7290    -1.2240 h1         1 L0E       0.087950
     45 H45          4.2200    37.7640     0.1740 h1         1 L0E       0.087950
     46 H46          2.1300    36.4150     0.4360 hx         1 L0E       0.110950
     47 H47          3.3180    36.0670     1.7120 hx         1 L0E       0.110950
     48 H48          0.9750    35.4510     2.7990 ha         1 L0E       0.113000
     49 H49          1.1960    35.4210     5.2520 ha         1 L0E       0.141000
     50 H50          7.2070    27.5830     5.0650 hn         1 L0E       0.181000
     51 H51          5.5380    27.2290     3.0930 ha         1 L0E       0.131000
     52 H52          4.9540    28.2120     0.9070 ha         1 L0E       0.110000
     53 H53          5.4040    30.6010     0.4570 ha         1 L0E       0.093000
     54 H54          6.4840    31.9960     2.2070 ha         1 L0E       0.110000
     55 H55          7.1200    31.0040     4.3600 ha         1 L0E       0.131000
@<TRIPOS>BOND
     1     1     2 2   
     2     2     3 1   
     3     2    25 1   
     4     3     4 1   
     5     3    35 1   
     6     4     5 2   
     7     4     8 1   
     8     5     6 1   
     9     5    36 1   
    10     6     7 1   
    11     6    32 1   
    12     7     8 2   
    13     8     9 1   
    14     9    10 2   
    15     9    24 1   
    16    10    11 1   
    17    11    12 ar  
    18    11    23 ar  
    19    12    13 ar  
    20    12    37 1   
    21    13    14 1   
    22    13    21 ar  
    23    14    15 1   
    24    14    38 1   
    25    14    39 1   
    26    15    16 1   
    27    15    20 1   
    28    15    33 1   
    29    16    17 1   
    30    16    40 1   
    31    16    41 1   
    32    17    18 1   
    33    17    42 1   
    34    17    43 1   
    35    18    19 1   
    36    19    20 1   
    37    19    44 1   
    38    19    45 1   
    39    20    46 1   
    40    20    47 1   
    41    21    22 ar  
    42    21    48 1   
    43    22    23 ar  
    44    22    49 1   
    45    23    24 1   
    46    24    34 1   
    47    25    26 1   
    48    25    50 1   
    49    26    27 ar  
    50    26    31 ar  
    51    27    28 ar  
    52    27    51 1   
    53    28    29 ar  
    54    28    52 1   
    55    29    30 ar  
    56    29    53 1   
    57    30    31 ar  
    58    30    54 1   
    59    31    55 1   
@<TRIPOS>SUBSTRUCTURE
     1 L0E         1 TEMP              0 ****  ****    0 ROOT
