@<TRIPOS>MOLECULE
L0E
   55    59     1     0     0
SMALL
No Charge or Current Charge


@<TRIPOS>ATOM
      1 O1           6.6930    28.1390     7.3350 o          1 L0E      -0.617100
      2 C2           6.2570    28.7700     6.3830 c          1 L0E       0.670100
      3 N3           5.4370    29.8700     6.5040 ns         1 L0E      -0.397100
      4 C4           4.9960    30.5370     7.6430 cc         1 L0E       0.024600
      5 C5           5.3310    30.2620     8.9340 cd         1 L0E      -0.186000
      6 N6           4.6550    31.2270     9.6940 na         1 L0E       0.035800
      7 N8           3.9050    32.1000     8.9040 nd         1 L0E      -0.502800
      8 C9           4.1280    31.6550     7.6740 cc         1 L0E       0.145700
      9 C10          3.5770    32.2110     6.4510 cc         1 L0E       0.446800
     10 N11          3.7450    31.7850     5.1770 nd         1 L0E      -0.614100
     11 C12          3.0050    32.6860     4.4200 ca         1 L0E       0.084400
     12 C13          2.8400    32.7060     3.0300 ca         1 L0E      -0.023000
     13 C14          2.0570    33.7350     2.4570 ca         1 L0E      -0.195300
     14 C15          1.8750    33.8000     0.9510 c3         1 L0E       0.173900
     15 N16          3.0070    34.5180     0.2210 nx         1 L0E      -0.664000
     16 C18          4.3630    33.7780     0.3140 c6         1 L0E       0.052600
     17 C19          5.4850    34.5630    -0.4100 c6         1 L0E       0.124600
     18 O20          5.5590    35.9110     0.1080 os         1 L0E      -0.399000
     19 C21          4.3460    36.6770    -0.0800 c6         1 L0E       0.124600
     20 C22          3.1660    35.9940     0.6580 c6         1 L0E       0.052600
     21 C23          1.4470    34.7070     3.2910 ca         1 L0E      -0.095000
     22 C24          1.6190    34.6590     4.6910 ca         1 L0E      -0.083000
     23 C25          2.4100    33.6270     5.2090 ca         1 L0E      -0.055200
     24 N26          2.7540    33.3350     6.4940 na         1 L0E      -0.281600
     25 N28          6.5250    28.4000     5.0770 ns         1 L0E      -0.182000
     26 C29          6.2890    29.0760     3.8500 ca         1 L0E      -0.025000
     27 C30          5.9070    28.3250     2.7230 ca         1 L0E      -0.119000
     28 C31          5.6760    28.9600     1.4900 ca         1 L0E      -0.095500
     29 C32          5.8420    30.3500     1.3720 ca         1 L0E      -0.143000
     30 C33          6.2480    31.1040     2.4860 ca         1 L0E      -0.095500
     31 C34          6.4770    30.4700     3.7200 ca         1 L0E      -0.119000
     32 H7           4.6820    31.3200    10.7110 hn         1 L0E       0.390000
     33 H17          2.7310    34.5250    -0.7880 hn         1 L0E       0.487000
     34 H27          2.4870    33.8280     7.3360 hn         1 L0E       0.389000
     35 H35          5.1080    30.2280     5.6110 hn         1 L0E       0.366500
     36 H36          5.9710    29.5020     9.3690 h4         1 L0E       0.197000
     37 H37          3.3130    31.9460     2.4130 ha         1 L0E       0.134000
     38 H38          1.7950    32.7870     0.5450 hx         1 L0E       0.093700
     39 H39          0.9400    34.3170     0.7190 hx         1 L0E       0.093700
     40 H40          4.2440    32.7730    -0.1040 hx         1 L0E       0.110950
     41 H41          4.6060    33.6760     1.3770 hx         1 L0E       0.110950
     42 H42          5.2930    34.5930    -1.4920 h1         1 L0E       0.087950
     43 H43          6.4510    34.0620    -0.2510 h1         1 L0E       0.087950
     44 H44          4.1260    36.7610    -1.1540 h1         1 L0E       0.087950
     45 H45          4.4950    37.6910     0.3160 h1         1 L0E       0.087950
     46 H46          2.2220    36.5180     0.4730 hx         1 L0E       0.110950
     47 H47          3.3460    35.9950     1.7380 hx         1 L0E       0.110950
     48 H48          0.8420    35.4990     2.8530 ha         1 L0E       0.113000
     49 H49          1.1570    35.4000     5.3400 ha         1 L0E       0.141000
     50 H50          7.0260    27.5260     4.9880 hn         1 L0E       0.181000
     51 H51          5.7770    27.2480     2.8040 ha         1 L0E       0.131000
     52 H52          5.3720    28.3740     0.6260 ha         1 L0E       0.110000
     53 H53          5.6680    30.8390     0.4170 ha         1 L0E       0.093000
     54 H54          6.3930    32.1780     2.3930 ha         1 L0E       0.110000
     55 H55          6.8200    31.0680     4.5610 ha         1 L0E       0.131000
@<TRIPOS>BOND
     1     1     2 2   
     2     2     3 1   
     3     2    25 1   
     4     3     4 1   
     5     3    35 1   
     6     4     5 2   
     7     4     8 1   
     8     5     6 1   
     9     5    36 1   
    10     6     7 1   
    11     6    32 1   
    12     7     8 2   
    13     8     9 1   
    14     9    10 2   
    15     9    24 1   
    16    10    11 1   
    17    11    12 ar  
    18    11    23 ar  
    19    12    13 ar  
    20    12    37 1   
    21    13    14 1   
    22    13    21 ar  
    23    14    15 1   
    24    14    38 1   
    25    14    39 1   
    26    15    16 1   
    27    15    20 1   
    28    15    33 1   
    29    16    17 1   
    30    16    40 1   
    31    16    41 1   
    32    17    18 1   
    33    17    42 1   
    34    17    43 1   
    35    18    19 1   
    36    19    20 1   
    37    19    44 1   
    38    19    45 1   
    39    20    46 1   
    40    20    47 1   
    41    21    22 ar  
    42    21    48 1   
    43    22    23 ar  
    44    22    49 1   
    45    23    24 1   
    46    24    34 1   
    47    25    26 1   
    48    25    50 1   
    49    26    27 ar  
    50    26    31 ar  
    51    27    28 ar  
    52    27    51 1   
    53    28    29 ar  
    54    28    52 1   
    55    29    30 ar  
    56    29    53 1   
    57    30    31 ar  
    58    30    54 1   
    59    31    55 1   
@<TRIPOS>SUBSTRUCTURE
     1 L0E         1 TEMP              0 ****  ****    0 ROOT
