@<TRIPOS>MOLECULE
L0F
   36    39     1     0     0
SMALL
No Charge or Current Charge


@<TRIPOS>ATOM
      1 O1          -3.4000    -1.8620     0.0010 o          1 L0F      -0.610100
      2 C2          -2.6720    -0.8760     0.0000 c          1 L0F       0.620700
      3 N3          -1.2930    -0.9770    -0.0010 ns         1 L0F      -0.371100
      4 C4          -0.4810    -2.1110    -0.0010 cc         1 L0F       0.000600
      5 C5          -0.8850    -3.4120     0.0000 cd         1 L0F      -0.191000
      6 N6           0.3010    -4.1580    -0.0000 na         1 L0F       0.017800
      7 N8           1.4390    -3.3520    -0.0010 nd         1 L0F      -0.514800
      8 C9           0.9360    -2.1240    -0.0010 cc         1 L0F       0.179700
      9 C10          1.7060    -0.8900    -0.0020 cc         1 L0F       0.404800
     10 N11          1.2680     0.3940    -0.0030 nd         1 L0F      -0.625100
     11 C12          2.4380     1.1470    -0.0040 ca         1 L0F       0.080400
     12 C13          2.5670     2.5430    -0.0050 ca         1 L0F      -0.057000
     13 C14          3.8680     3.0960    -0.0060 ca         1 L0F      -0.129000
     14 C15          5.0060     2.2530    -0.0060 ca         1 L0F      -0.096000
     15 C16          4.8510     0.8500    -0.0050 ca         1 L0F      -0.109000
     16 C17          3.5450     0.3470    -0.0040 ca         1 L0F      -0.080200
     17 N18          3.0990    -0.9390    -0.0030 na         1 L0F      -0.290600
     18 C20         -3.2430     0.5310     0.0000 ca         1 L0F      -0.147600
     19 C21         -4.6480     0.7060     0.0000 ca         1 L0F      -0.067000
     20 C22         -5.2160     1.9920     0.0000 ca         1 L0F      -0.124000
     21 C23         -4.3910     3.1260    -0.0000 ca         1 L0F      -0.086000
     22 C24         -2.9970     2.9730    -0.0000 ca         1 L0F      -0.124000
     23 C25         -2.4230     1.6890    -0.0000 ca         1 L0F      -0.067000
     24 H7           0.3710    -5.1770     0.0000 hn         1 L0F       0.379000
     25 H19          3.6520    -1.7860    -0.0030 hn         1 L0F       0.373000
     26 H26         -0.8110    -0.0850    -0.0010 hn         1 L0F       0.369500
     27 H27         -1.8700    -3.8640     0.0010 h4         1 L0F       0.187000
     28 H28          1.6880     3.1820    -0.0040 ha         1 L0F       0.124000
     29 H29          3.9950     4.1760    -0.0060 ha         1 L0F       0.114000
     30 H30          6.0030     2.6880    -0.0060 ha         1 L0F       0.114000
     31 H31          5.7140     0.1880    -0.0050 ha         1 L0F       0.119000
     32 H32         -5.3090    -0.1590     0.0000 ha         1 L0F       0.129500
     33 H33         -6.2970     2.1070     0.0000 ha         1 L0F       0.116500
     34 H34         -4.8310     4.1210    -0.0000 ha         1 L0F       0.114000
     35 H35         -2.3560     3.8520    -0.0000 ha         1 L0F       0.116500
     36 H36         -1.3380     1.6210    -0.0000 ha         1 L0F       0.129500
@<TRIPOS>BOND
     1     1     2 2   
     2     2     3 1   
     3     2    18 1   
     4     3     4 1   
     5     3    26 1   
     6     4     5 2   
     7     4     8 1   
     8     5     6 1   
     9     5    27 1   
    10     6     7 1   
    11     6    24 1   
    12     7     8 2   
    13     8     9 1   
    14     9    10 2   
    15     9    17 1   
    16    10    11 1   
    17    11    12 ar  
    18    11    16 ar  
    19    12    13 ar  
    20    12    28 1   
    21    13    14 ar  
    22    13    29 1   
    23    14    15 ar  
    24    14    30 1   
    25    15    16 ar  
    26    15    31 1   
    27    16    17 1   
    28    17    25 1   
    29    18    19 ar  
    30    18    23 ar  
    31    19    20 ar  
    32    19    32 1   
    33    20    21 ar  
    34    20    33 1   
    35    21    22 ar  
    36    21    34 1   
    37    22    23 ar  
    38    22    35 1   
    39    23    36 1   
@<TRIPOS>SUBSTRUCTURE
     1 L0F         1 TEMP              0 ****  ****    0 ROOT
