@<TRIPOS>MOLECULE
L0F
   36    39     1     0     0
SMALL
abcg2


@<TRIPOS>ATOM
      1 O1          -3.3080    -1.7920     0.0130 o          1 L0F      -0.610100
      2 C2          -2.6100    -0.7890     0.0030 c          1 L0F       0.620700
      3 N3          -1.2630    -0.8570    -0.0120 ns         1 L0F      -0.371100
      4 C4          -0.5260    -2.0280    -0.0070 cc         1 L0F       0.000600
      5 C5          -0.8960    -3.3570    -0.0030 cd         1 L0F      -0.191000
      6 N6           0.2610    -4.0520     0.0020 na         1 L0F       0.017800
      7 N8           1.3390    -3.3030     0.0020 nd         1 L0F      -0.514800
      8 C9           0.8870    -2.0580    -0.0040 cc         1 L0F       0.179700
      9 C10          1.7590    -0.9070    -0.0060 cc         1 L0F       0.404800
     10 N11          1.3220     0.3290    -0.0210 nd         1 L0F      -0.625100
     11 C12          2.4500     1.1120    -0.0190 ca         1 L0F       0.080400
     12 C13          2.5850     2.4990    -0.0300 ca         1 L0F      -0.057000
     13 C14          3.8650     3.0230    -0.0230 ca         1 L0F      -0.129000
     14 C15          4.9970     2.1920    -0.0060 ca         1 L0F      -0.096000
     15 C16          4.8820     0.8130     0.0050 ca         1 L0F      -0.109000
     16 C17          3.5940     0.2940    -0.0020 ca         1 L0F      -0.080200
     17 N18          3.1100    -0.9880     0.0050 na         1 L0F      -0.290600
     18 C20         -3.2080     0.5810     0.0050 ca         1 L0F      -0.147600
     19 C21         -4.5990     0.6720    -0.0150 ca         1 L0F      -0.067000
     20 C22         -5.2270     1.9070    -0.0130 ca         1 L0F      -0.124000
     21 C23         -4.4730     3.0720     0.0100 ca         1 L0F      -0.086000
     22 C24         -3.0870     2.9930     0.0320 ca         1 L0F      -0.124000
     23 C25         -2.4570     1.7580     0.0300 ca         1 L0F      -0.067000
     24 H7           0.3510    -5.0560     0.0050 hn         1 L0F       0.379000
     25 H19          3.6510    -1.8390     0.0210 hn         1 L0F       0.373000
     26 H26         -0.6840    -0.0230    -0.0250 hn         1 L0F       0.369500
     27 H27         -1.8520    -3.8470    -0.0050 h4         1 L0F       0.187000
     28 H28          1.7150     3.1430    -0.0440 ha         1 L0F       0.124000
     29 H29          4.0010     4.0960    -0.0320 ha         1 L0F       0.114000
     30 H30          5.9810     2.6420    -0.0010 ha         1 L0F       0.114000
     31 H31          5.7540     0.1720     0.0180 ha         1 L0F       0.119000
     32 H32         -5.1940    -0.2300    -0.0340 ha         1 L0F       0.129500
     33 H33         -6.3070     1.9590    -0.0280 ha         1 L0F       0.116500
     34 H34         -4.9620     4.0380     0.0130 ha         1 L0F       0.114000
     35 H35         -2.4900     3.8950     0.0520 ha         1 L0F       0.116500
     36 H36         -1.3750     1.7510     0.0500 ha         1 L0F       0.129500
@<TRIPOS>BOND
     1     1     2 2   
     2     2     3 1   
     3     2    18 1   
     4     3     4 1   
     5     3    26 1   
     6     4     5 2   
     7     4     8 1   
     8     5     6 1   
     9     5    27 1   
    10     6     7 1   
    11     6    24 1   
    12     7     8 2   
    13     8     9 1   
    14     9    10 2   
    15     9    17 1   
    16    10    11 1   
    17    11    12 ar  
    18    11    16 ar  
    19    12    13 ar  
    20    12    28 1   
    21    13    14 ar  
    22    13    29 1   
    23    14    15 ar  
    24    14    30 1   
    25    15    16 ar  
    26    15    31 1   
    27    16    17 1   
    28    17    25 1   
    29    18    19 ar  
    30    18    23 ar  
    31    19    20 ar  
    32    19    32 1   
    33    20    21 ar  
    34    20    33 1   
    35    21    22 ar  
    36    21    34 1   
    37    22    23 ar  
    38    22    35 1   
    39    23    36 1   
@<TRIPOS>SUBSTRUCTURE
     1 L0F         1 TEMP              0 ****  ****    0 ROOT
