@<TRIPOS>MOLECULE
L0G
   53    57     1     0     0
SMALL
No Charge or Current Charge


@<TRIPOS>ATOM
      1 O1           4.9690    27.4480     6.8440 o          1 L0G      -0.590100
      2 C2           5.2050    28.2940     6.0000 c          1 L0G       0.653100
      3 N3           5.9260    27.9890     4.8730 ns         1 L0G      -0.480900
      4 C4           6.2470    28.8830     3.7870 cx         1 L0G      -0.001300
      5 C5           7.3270    29.9170     4.0040 cx         1 L0G      -0.121400
      6 C6           7.5940    28.7170     3.1280 cx         1 L0G      -0.121400
      7 N7           4.7850    29.6050     6.0710 ns         1 L0G      -0.423100
      8 C8           4.1060    30.2510     7.1040 cc         1 L0G       0.039600
      9 C9           3.9610    29.7500     8.3750 cd         1 L0G      -0.137000
     10 N10          3.3470    30.7960     9.0530 na         1 L0G       0.076800
     11 N12          3.0700    31.9320     8.3290 nc         1 L0G      -0.479800
     12 C13          3.5320    31.5690     7.0890 cc         1 L0G       0.048000
     13 C14          3.4060    32.4280     6.0000 cd         1 L0G       0.252800
     14 N15          2.8710    33.7140     6.1440 na         1 L0G      -0.182700
     15 C17          2.7770    34.1690     4.8450 ca         1 L0G      -0.063200
     16 C18          2.3370    35.4220     4.3970 ca         1 L0G      -0.042000
     17 C19          2.3210    35.6640     3.0050 ca         1 L0G      -0.136300
     18 C20          1.8410    37.0010     2.4740 c3         1 L0G       0.158900
     19 N21          0.3870    36.9720     2.0200 nx         1 L0G      -0.682000
     20 C23         -0.6060    36.8000     3.1950 c6         1 L0G       0.063600
     21 C24         -2.0740    36.8270     2.6990 c6         1 L0G       0.125100
     22 O25         -2.3200    38.0380     1.9460 os         1 L0G      -0.395000
     23 C26         -1.4920    38.1720     0.7670 c6         1 L0G       0.125100
     24 C27          0.0050    38.2070     1.1700 c6         1 L0G       0.063600
     25 C28          2.7420    34.6550     2.1040 ca         1 L0G      -0.067000
     26 C29          3.1790    33.4020     2.5840 ca         1 L0G      -0.053000
     27 C30          3.1850    33.1910     3.9700 ca         1 L0G      -0.033200
     28 N31          3.5620    32.0520     4.6550 na         1 L0G      -0.197700
     29 H11          3.1060    30.7610    10.0440 hn         1 L0G       0.417000
     30 H16          2.5980    34.1650     7.0100 hn         1 L0G       0.424000
     31 H22          0.2960    36.1290     1.4070 hn         1 L0G       0.498000
     32 H32          3.6760    31.1190     4.2830 hn         1 L0G       0.418000
     33 H33          6.2260    27.0220     4.8210 hn         1 L0G       0.360500
     34 H34          5.4000    29.1360     3.1480 h1         1 L0G       0.066700
     35 H35          7.2110    30.8830     3.5170 hc         1 L0G       0.089950
     36 H36          7.8190    29.9530     4.9730 hc         1 L0G       0.089950
     37 H37          7.6530    28.8770     2.0530 hc         1 L0G       0.089950
     38 H38          8.2640    27.9510     3.5100 hc         1 L0G       0.089950
     39 H39          5.1020    30.1540     5.2870 hn         1 L0G       0.321500
     40 H40          4.2620    28.8180     8.8400 h4         1 L0G       0.221000
     41 H41          2.0150    36.1850     5.1030 ha         1 L0G       0.154000
     42 H42          2.4610    37.2960     1.6230 hx         1 L0G       0.111700
     43 H43          1.9510    37.7770     3.2370 hx         1 L0G       0.111700
     44 H44         -0.3770    35.8600     3.7090 hx         1 L0G       0.106450
     45 H45         -0.4300    37.6210     3.8980 hx         1 L0G       0.106450
     46 H46         -2.2800    35.9500     2.0680 h1         1 L0G       0.099200
     47 H47         -2.7580    36.7920     3.5600 h1         1 L0G       0.099200
     48 H48         -1.6830    37.3310     0.0840 h1         1 L0G       0.099200
     49 H49         -1.7570    39.1010     0.2420 h1         1 L0G       0.099200
     50 H50          0.6530    38.2400     0.2870 hx         1 L0G       0.106450
     51 H51          0.2110    39.0980     1.7730 hx         1 L0G       0.106450
     52 H52          2.7310    34.8400     1.0310 ha         1 L0G       0.146000
     53 H53          3.5020    32.6240     1.8940 ha         1 L0G       0.169000
@<TRIPOS>BOND
     1     1     2 2   
     2     2     3 1   
     3     2     7 1   
     4     3     4 1   
     5     3    33 1   
     6     4     5 1   
     7     4     6 1   
     8     4    34 1   
     9     5     6 1   
    10     5    35 1   
    11     5    36 1   
    12     6    37 1   
    13     6    38 1   
    14     7     8 1   
    15     7    39 1   
    16     8     9 2   
    17     8    12 1   
    18     9    10 1   
    19     9    40 1   
    20    10    11 2   
    21    10    29 1   
    22    11    12 1   
    23    12    13 2   
    24    13    14 1   
    25    13    28 1   
    26    14    15 1   
    27    14    30 1   
    28    15    16 ar  
    29    15    27 ar  
    30    16    17 ar  
    31    16    41 1   
    32    17    18 1   
    33    17    25 ar  
    34    18    19 1   
    35    18    42 1   
    36    18    43 1   
    37    19    20 1   
    38    19    24 1   
    39    19    31 1   
    40    20    21 1   
    41    20    44 1   
    42    20    45 1   
    43    21    22 1   
    44    21    46 1   
    45    21    47 1   
    46    22    23 1   
    47    23    24 1   
    48    23    48 1   
    49    23    49 1   
    50    24    50 1   
    51    24    51 1   
    52    25    26 ar  
    53    25    52 1   
    54    26    27 ar  
    55    26    53 1   
    56    27    28 1   
    57    28    32 1   
@<TRIPOS>SUBSTRUCTURE
     1 L0G         1 TEMP              0 ****  ****    0 ROOT
