@<TRIPOS>MOLECULE
L0G
   53    57     1     0     0
SMALL
abcg2


@<TRIPOS>ATOM
      1 O1           4.6850    27.5120     6.7860 o          1 L0G      -0.590100
      2 C2           5.1490    28.3070     5.9710 c          1 L0G       0.653100
      3 N3           5.9540    27.9250     4.9430 ns         1 L0G      -0.480900
      4 C4           6.3910    28.7710     3.8720 cx         1 L0G      -0.001300
      5 C5           7.4860    29.7800     4.1350 cx         1 L0G      -0.121400
      6 C6           7.7660    28.5450     3.3270 cx         1 L0G      -0.121400
      7 N7           4.8930    29.6640     6.0260 ns         1 L0G      -0.423100
      8 C8           4.2210    30.2830     7.0740 cc         1 L0G       0.039600
      9 C9           4.0920    29.8880     8.3930 cd         1 L0G      -0.137000
     10 N10          3.3920    30.8700     9.0100 na         1 L0G       0.076800
     11 N12          3.0520    31.8720     8.2160 nc         1 L0G      -0.479800
     12 C13          3.5380    31.5260     7.0110 cc         1 L0G       0.048000
     13 C14          3.2950    32.3930     5.8950 cd         1 L0G       0.252800
     14 N15          2.8700    33.6600     5.9920 na         1 L0G      -0.182700
     15 C17          2.7000    34.1990     4.7260 ca         1 L0G      -0.063200
     16 C18          2.2860    35.4500     4.2980 ca         1 L0G      -0.042000
     17 C19          2.2250    35.6580     2.9250 ca         1 L0G      -0.136300
     18 C20          1.7820    36.9910     2.3970 c3         1 L0G       0.158900
     19 N21          0.3270    37.0020     1.9740 nx         1 L0G      -0.682000
     20 C23         -0.6140    36.6810     3.1040 c6         1 L0G       0.063600
     21 C24         -2.0510    36.7900     2.6300 c6         1 L0G       0.125100
     22 O25         -2.3300    38.0810     2.1060 os         1 L0G      -0.395000
     23 C26         -1.4990    38.3570     0.9860 c6         1 L0G       0.125100
     24 C27         -0.0330    38.3340     1.3710 c6         1 L0G       0.063600
     25 C28          2.5810    34.6380     2.0220 ca         1 L0G      -0.067000
     26 C29          2.9970    33.3870     2.4490 ca         1 L0G      -0.053000
     27 C30          3.0500    33.1870     3.8220 ca         1 L0G      -0.033200
     28 N31          3.4150    32.0930     4.5910 na         1 L0G      -0.197700
     29 H11          3.1120    30.8880     9.9800 hn         1 L0G       0.417000
     30 H16          2.7080    34.1320     6.8710 hn         1 L0G       0.424000
     31 H22          0.2090    36.2880     1.2480 hn         1 L0G       0.498000
     32 H32          3.6570    31.1800     4.2290 hn         1 L0G       0.418000
     33 H33          6.0530    26.9270     4.8370 hn         1 L0G       0.360500
     34 H34          5.6200    29.0590     3.1640 h1         1 L0G       0.066700
     35 H35          7.4210    30.7310     3.6250 hc         1 L0G       0.089950
     36 H36          7.8860    29.8180     5.1400 hc         1 L0G       0.089950
     37 H37          7.9000    28.6440     2.2590 hc         1 L0G       0.089950
     38 H38          8.3550    27.7670     3.7950 hc         1 L0G       0.089950
     39 H39          5.4370    30.2530     5.4120 hn         1 L0G       0.321500
     40 H40          4.4340    29.0120     8.9110 h4         1 L0G       0.221000
     41 H41          2.0230    36.2280     5.0030 ha         1 L0G       0.154000
     42 H42          2.3460    37.2730     1.5100 hx         1 L0G       0.111700
     43 H43          1.8810    37.7710     3.1470 hx         1 L0G       0.111700
     44 H44         -0.3970    35.6740     3.4500 hx         1 L0G       0.106450
     45 H45         -0.4020    37.3990     3.8950 hx         1 L0G       0.106450
     46 H46         -2.2580    36.0240     1.8720 h1         1 L0G       0.099200
     47 H47         -2.7140    36.6310     3.4780 h1         1 L0G       0.099200
     48 H48         -1.6940    37.6320     0.1860 h1         1 L0G       0.099200
     49 H49         -1.7550    39.3520     0.6260 h1         1 L0G       0.099200
     50 H50          0.6070    38.4860     0.5040 hx         1 L0G       0.106450
     51 H51          0.1880    39.0850     2.1280 hx         1 L0G       0.106450
     52 H52          2.5330    34.8410     0.9590 ha         1 L0G       0.146000
     53 H53          3.2720    32.6090     1.7520 ha         1 L0G       0.169000
@<TRIPOS>BOND
     1     1     2 2   
     2     2     3 1   
     3     2     7 1   
     4     3     4 1   
     5     3    33 1   
     6     4     5 1   
     7     4     6 1   
     8     4    34 1   
     9     5     6 1   
    10     5    35 1   
    11     5    36 1   
    12     6    37 1   
    13     6    38 1   
    14     7     8 1   
    15     7    39 1   
    16     8     9 2   
    17     8    12 1   
    18     9    10 1   
    19     9    40 1   
    20    10    11 2   
    21    10    29 1   
    22    11    12 1   
    23    12    13 2   
    24    13    14 1   
    25    13    28 1   
    26    14    15 1   
    27    14    30 1   
    28    15    16 ar  
    29    15    27 ar  
    30    16    17 ar  
    31    16    41 1   
    32    17    18 1   
    33    17    25 ar  
    34    18    19 1   
    35    18    42 1   
    36    18    43 1   
    37    19    20 1   
    38    19    24 1   
    39    19    31 1   
    40    20    21 1   
    41    20    44 1   
    42    20    45 1   
    43    21    22 1   
    44    21    46 1   
    45    21    47 1   
    46    22    23 1   
    47    23    24 1   
    48    23    48 1   
    49    23    49 1   
    50    24    50 1   
    51    24    51 1   
    52    25    26 ar  
    53    25    52 1   
    54    26    27 ar  
    55    26    53 1   
    56    27    28 1   
    57    28    32 1   
@<TRIPOS>SUBSTRUCTURE
     1 L0G         1 TEMP              0 ****  ****    0 ROOT
