@<TRIPOS>MOLECULE
L0I
   52    56     1     0     0
SMALL
abcg2


@<TRIPOS>ATOM
      1 O1          -5.9720     0.1890    -0.5500 o          1 L0I      -0.621100
      2 C2          -4.9720    -0.4890    -0.3660 c          1 L0I       0.662100
      3 N3          -4.9960    -1.8400    -0.2480 ns         1 L0I      -0.492900
      4 C4          -6.2030    -2.5760    -0.4120 cx         1 L0I       0.049700
      5 C5          -6.3980    -3.7730     0.4630 cx         1 L0I      -0.127900
      6 C6          -7.2230    -2.5430     0.6820 cx         1 L0I      -0.127900
      7 N7          -3.7230     0.0590    -0.2490 ns         1 L0I      -0.403100
      8 C8          -3.4540     1.4100    -0.3260 cc         1 L0I       0.041600
      9 C9          -4.2720     2.4990    -0.5510 cd         1 L0I      -0.191000
     10 N10         -3.4610     3.5790    -0.5130 na         1 L0I       0.038800
     11 N12         -2.2020     3.2970    -0.2840 nd         1 L0I      -0.514800
     12 C13         -2.1670     1.9750    -0.1660 cc         1 L0I       0.136700
     13 C14         -0.9420     1.2670     0.1070 cc         1 L0I       0.461800
     14 N15         -0.8580    -0.0370     0.2170 nd         1 L0I      -0.616100
     15 C16          0.4600    -0.2910     0.4940 ca         1 L0I       0.125400
     16 C17          1.1170    -1.4980     0.7260 ca         1 L0I      -0.042000
     17 C18          2.4680    -1.4540     1.0120 ca         1 L0I      -0.113000
     18 C19          3.1740    -0.2400     1.0680 ca         1 L0I      -0.180300
     19 C20          4.6350    -0.2350     1.3950 c3         1 L0I       0.166900
     20 N21          5.4990    -0.1490     0.1670 nx         1 L0I      -0.667000
     21 C23          6.9300     0.0580     0.5450 c6         1 L0I       0.055100
     22 C24          7.8040     0.0870    -0.6910 c6         1 L0I       0.125600
     23 O25          7.6580    -1.0860    -1.4520 os         1 L0I      -0.400000
     24 C26          6.3300    -1.2340    -1.8870 c6         1 L0I       0.125600
     25 C27          5.3670    -1.3400    -0.7220 c6         1 L0I       0.055100
     26 C28          2.5310     0.9690     0.8360 ca         1 L0I      -0.073000
     27 C29          1.1770     0.9180     0.5490 ca         1 L0I      -0.092200
     28 N30          0.2490     1.8890     0.2920 na         1 L0I      -0.289600
     29 H11         -3.7430     4.5380    -0.6380 hn         1 L0I       0.389000
     30 H22          5.1920     0.6740    -0.3580 hn         1 L0I       0.495000
     31 H31          0.4040     2.8850     0.2580 hn         1 L0I       0.385000
     32 H32         -4.1300    -2.3540    -0.2540 hn         1 L0I       0.314500
     33 H33         -6.5770    -2.6510    -1.4290 h1         1 L0I       0.087700
     34 H34         -6.8670    -4.6430     0.0250 hc         1 L0I       0.080450
     35 H35         -5.6240    -3.9950     1.1870 hc         1 L0I       0.080450
     36 H36         -7.0010    -1.9380     1.5500 hc         1 L0I       0.080450
     37 H37         -8.2670    -2.5620     0.3970 hc         1 L0I       0.080450
     38 H38         -2.9160    -0.5260    -0.0610 hn         1 L0I       0.351500
     39 H39         -5.3270     2.5900    -0.7300 h4         1 L0I       0.200000
     40 H40          0.5830    -2.4380     0.6920 ha         1 L0I       0.149000
     41 H41          2.9960    -2.3780     1.2130 ha         1 L0I       0.117000
     42 H42          4.9000     0.6290     2.0030 hx         1 L0I       0.095700
     43 H43          4.9420    -1.1350     1.9240 hx         1 L0I       0.095700
     44 H44          6.9970     0.9960     1.0930 hx         1 L0I       0.108200
     45 H45          7.2030    -0.7610     1.2100 hx         1 L0I       0.108200
     46 H46          7.5740     0.9770    -1.2920 h1         1 L0I       0.089700
     47 H47          8.8440     0.1610    -0.3740 h1         1 L0I       0.089700
     48 H48          6.0370    -0.4020    -2.5420 h1         1 L0I       0.089700
     49 H49          6.2640    -2.1520    -2.4700 h1         1 L0I       0.089700
     50 H50          5.5720    -2.2180    -0.1100 hx         1 L0I       0.108200
     51 H51          4.3410    -1.3880    -1.0810 hx         1 L0I       0.108200
     52 H52          3.0650     1.9100     0.8930 ha         1 L0I       0.117000
@<TRIPOS>BOND
     1     1     2 2   
     2     2     3 1   
     3     2     7 1   
     4     3     4 1   
     5     3    32 1   
     6     4     5 1   
     7     4     6 1   
     8     4    33 1   
     9     5     6 1   
    10     5    34 1   
    11     5    35 1   
    12     6    36 1   
    13     6    37 1   
    14     7     8 1   
    15     7    38 1   
    16     8     9 2   
    17     8    12 1   
    18     9    10 1   
    19     9    39 1   
    20    10    11 1   
    21    10    29 1   
    22    11    12 2   
    23    12    13 1   
    24    13    14 2   
    25    13    28 1   
    26    14    15 1   
    27    15    16 ar  
    28    15    27 ar  
    29    16    17 ar  
    30    16    40 1   
    31    17    18 ar  
    32    17    41 1   
    33    18    19 1   
    34    18    26 ar  
    35    19    20 1   
    36    19    42 1   
    37    19    43 1   
    38    20    21 1   
    39    20    25 1   
    40    20    30 1   
    41    21    22 1   
    42    21    44 1   
    43    21    45 1   
    44    22    23 1   
    45    22    46 1   
    46    22    47 1   
    47    23    24 1   
    48    24    25 1   
    49    24    48 1   
    50    24    49 1   
    51    25    50 1   
    52    25    51 1   
    53    26    27 ar  
    54    26    52 1   
    55    27    28 1   
    56    28    31 1   
@<TRIPOS>SUBSTRUCTURE
     1 L0I         1 TEMP              0 ****  ****    0 ROOT
