@<TRIPOS>MOLECULE
L0I
   52    56     1     0     0
SMALL
No Charge or Current Charge


@<TRIPOS>ATOM
      1 O1          -6.0680     0.3180    -0.7200 o          1 L0I      -0.621100
      2 C2          -5.0410    -0.2820    -0.4480 c          1 L0I       0.662100
      3 N3          -4.9950    -1.6450    -0.2860 ns         1 L0I      -0.492900
      4 C4          -6.1360    -2.5110    -0.4150 cx         1 L0I       0.049700
      5 C5          -5.9970    -3.9320     0.0740 cx         1 L0I      -0.127900
      6 C6          -6.8330    -2.9440     0.8510 cx         1 L0I      -0.127900
      7 N7          -3.8150     0.3120    -0.2700 ns         1 L0I      -0.403100
      8 C8          -3.4670     1.6570    -0.3510 cc         1 L0I       0.041600
      9 C9          -4.2980     2.7000    -0.6340 cd         1 L0I      -0.191000
     10 N10         -3.4790     3.8360    -0.5970 na         1 L0I       0.038800
     11 N12         -2.1520     3.5270    -0.2970 nd         1 L0I      -0.514800
     12 C13         -2.1770     2.2070    -0.1540 cc         1 L0I       0.136700
     13 C14         -1.0340     1.3680     0.1680 cc         1 L0I       0.461800
     14 N15         -0.9740     0.0240     0.3310 nd         1 L0I      -0.616100
     15 C16          0.3660    -0.2160     0.6260 ca         1 L0I       0.125400
     16 C17          0.9860    -1.4460     0.8880 ca         1 L0I      -0.042000
     17 C18          2.3710    -1.4530     1.1660 ca         1 L0I      -0.113000
     18 C19          3.1110    -0.2430     1.1780 ca         1 L0I      -0.180300
     19 C20          4.5980    -0.2640     1.4630 c3         1 L0I       0.166900
     20 N21          5.4350    -0.2400     0.1960 nx         1 L0I      -0.667000
     21 C23          6.9140     0.1230     0.4620 c6         1 L0I       0.055100
     22 C24          7.7440     0.0920    -0.8470 c6         1 L0I       0.125600
     23 O25          7.6000    -1.1940    -1.4950 os         1 L0I      -0.400000
     24 C26          6.2390    -1.5100    -1.8710 c6         1 L0I       0.125600
     25 C27          5.3390    -1.5560    -0.6100 c6         1 L0I       0.055100
     26 C28          2.4610     0.9820     0.9110 ca         1 L0I      -0.073000
     27 C29          1.0890     0.9420     0.6410 ca         1 L0I      -0.092200
     28 N30          0.2190     1.9490     0.3540 na         1 L0I      -0.289600
     29 H11         -3.7770     4.7980    -0.7650 hn         1 L0I       0.389000
     30 H22          5.0250     0.5190    -0.3940 hn         1 L0I       0.495000
     31 H31          0.4150     2.9380     0.2830 hn         1 L0I       0.385000
     32 H32         -4.0950    -2.0530    -0.0680 hn         1 L0I       0.314500
     33 H33         -6.7440    -2.3310    -1.3040 h1         1 L0I       0.087700
     34 H34         -6.5160    -4.7080    -0.4830 hc         1 L0I       0.080450
     35 H35         -5.0460    -4.2380     0.5020 hc         1 L0I       0.080450
     36 H36         -6.4430    -2.5820     1.7990 hc         1 L0I       0.080450
     37 H37         -7.9140    -3.0560     0.8170 hc         1 L0I       0.080450
     38 H38         -3.0640    -0.3320    -0.0470 hn         1 L0I       0.351500
     39 H39         -5.3590     2.7390    -0.8510 h4         1 L0I       0.200000
     40 H40          0.4120    -2.3680     0.8760 ha         1 L0I       0.149000
     41 H41          2.8700    -2.3980     1.3690 ha         1 L0I       0.117000
     42 H42          4.8650     0.6090     2.0650 hx         1 L0I       0.095700
     43 H43          4.8670    -1.1540     2.0380 hx         1 L0I       0.095700
     44 H44          6.9530     1.1110     0.9340 hx         1 L0I       0.108200
     45 H45          7.3090    -0.6080     1.1750 hx         1 L0I       0.108200
     46 H46          7.4100     0.8880    -1.5290 h1         1 L0I       0.089700
     47 H47          8.8050     0.2640    -0.6190 h1         1 L0I       0.089700
     48 H48          5.8670    -0.7540    -2.5780 h1         1 L0I       0.089700
     49 H49          6.2220    -2.4860    -2.3770 h1         1 L0I       0.089700
     50 H50          5.6540    -2.3700     0.0490 hx         1 L0I       0.108200
     51 H51          4.2900    -1.7240    -0.8760 hx         1 L0I       0.108200
     52 H52          3.0050     1.9250     0.9140 ha         1 L0I       0.117000
@<TRIPOS>BOND
     1     1     2 2   
     2     2     3 1   
     3     2     7 1   
     4     3     4 1   
     5     3    32 1   
     6     4     5 1   
     7     4     6 1   
     8     4    33 1   
     9     5     6 1   
    10     5    34 1   
    11     5    35 1   
    12     6    36 1   
    13     6    37 1   
    14     7     8 1   
    15     7    38 1   
    16     8     9 2   
    17     8    12 1   
    18     9    10 1   
    19     9    39 1   
    20    10    11 1   
    21    10    29 1   
    22    11    12 2   
    23    12    13 1   
    24    13    14 2   
    25    13    28 1   
    26    14    15 1   
    27    15    16 ar  
    28    15    27 ar  
    29    16    17 ar  
    30    16    40 1   
    31    17    18 ar  
    32    17    41 1   
    33    18    19 1   
    34    18    26 ar  
    35    19    20 1   
    36    19    42 1   
    37    19    43 1   
    38    20    21 1   
    39    20    25 1   
    40    20    30 1   
    41    21    22 1   
    42    21    44 1   
    43    21    45 1   
    44    22    23 1   
    45    22    46 1   
    46    22    47 1   
    47    23    24 1   
    48    24    25 1   
    49    24    48 1   
    50    24    49 1   
    51    25    50 1   
    52    25    51 1   
    53    26    27 ar  
    54    26    52 1   
    55    27    28 1   
    56    28    31 1   
@<TRIPOS>SUBSTRUCTURE
     1 L0I         1 TEMP              0 ****  ****    0 ROOT
