@<TRIPOS>MOLECULE
L0J
   45    47     1     0     0
SMALL
No Charge or Current Charge


@<TRIPOS>ATOM
      1 C17         -1.3860     1.0740    -1.6160 c6         1 L0J      -0.124900
      2 C20         -0.5250     1.4560    -0.3900 c6         1 L0J       0.116700
      3 C22         -1.2920     1.1050     0.9080 c6         1 L0J      -0.124900
      4 C14         -2.7550     1.7860    -1.5530 c6         1 L0J       0.206300
      5 C25         -2.7090     1.7390     0.9260 c6         1 L0J       0.206300
      6 C32          3.0820     0.2190    -0.0150 cc         1 L0J       0.223500
      7 C33          4.3470     0.4660     0.5550 cc         1 L0J      -0.199000
      8 C35          5.1250    -0.5660     0.1570 cd         1 L0J       0.212300
      9 C38          6.5580    -0.8160     0.4680 cx         1 L0J      -0.197000
     10 C40          7.4810    -1.4430    -0.5540 cx         1 L0J      -0.104400
     11 C43          7.0780    -2.2210     0.6760 cx         1 L0J      -0.104400
     12 N28          0.7620     0.7540    -0.4370 ns         1 L0J      -0.492900
     13 N37          3.0520    -0.9020    -0.7340 nd         1 L0J      -0.366300
     14 O31          1.9740     2.1810     0.8620 o          1 L0J      -0.585100
     15 O36          4.3940    -1.4220    -0.6240 os         1 L0J      -0.062700
     16 C04         -4.4800    -2.5660     0.4120 c3         1 L0J       0.184800
     17 C07         -3.6430    -1.2910     0.4130 c3         1 L0J      -0.343400
     18 N01         -3.7040    -3.6390     1.0450 n8         1 L0J      -0.992200
     19 N13         -3.4820     1.4370    -0.3060 n3         1 L0J      -0.750500
     20 O11         -4.8030    -0.2570    -1.7150 o          1 L0J      -0.532000
     21 O12         -5.6850     0.4410     0.5490 o          1 L0J      -0.532000
     22 S10         -4.5530     0.0760    -0.3090 s6         1 L0J       1.200100
     23 H1          -0.8680     1.3650    -2.5390 hc         1 L0J       0.058700
     24 H2          -1.5300    -0.0130    -1.6650 hc         1 L0J       0.058700
     25 H3          -0.3360     2.5410    -0.4140 h1         1 L0J       0.083700
     26 H4          -1.3520     0.0170     1.0210 hc         1 L0J       0.058700
     27 H5          -0.7280     1.4650     1.7790 hc         1 L0J       0.058700
     28 H6          -2.5770     2.8720    -1.5790 h1         1 L0J       0.075950
     29 H7          -3.3410     1.5580    -2.4550 h1         1 L0J       0.075950
     30 H8          -3.2520     1.4200     1.8290 h1         1 L0J       0.075950
     31 H9          -2.5870     2.8290     1.0140 h1         1 L0J       0.075950
     32 H10          4.6210     1.3100     1.1780 ha         1 L0J       0.172000
     33 H11          6.9900    -0.0410     1.0990 hc         1 L0J       0.100700
     34 H12          7.0600    -1.7520    -1.5090 hc         1 L0J       0.082450
     35 H13          8.5030    -1.0750    -0.6100 hc         1 L0J       0.082450
     36 H14          7.8300    -2.3760     1.4470 hc         1 L0J       0.082450
     37 H15          6.3880    -3.0520     0.5460 hc         1 L0J       0.082450
     38 H16          0.8210    -0.1100    -0.9650 hn         1 L0J       0.333500
     39 H17         -5.4120    -2.4140     0.9780 h1         1 L0J       0.047200
     40 H18         -3.3920    -0.9980     1.4370 h1         1 L0J       0.094700
     41 H19         -4.2350    -4.5170     0.9840 hn         1 L0J       0.395500
     42 H20         -2.8690    -3.8230     0.4790 hn         1 L0J       0.395500
     43 H21         -4.7340    -2.8590    -0.6170 h1         1 L0J       0.047200
     44 H22         -2.7370    -1.4170    -0.1850 h1         1 L0J       0.094700
     45 C30          1.9250     1.1510     0.1960 c          1 L0J       0.527600
@<TRIPOS>BOND
     1     1     2 1   
     2     1     4 1   
     3     1    23 1   
     4     1    24 1   
     5     2     3 1   
     6     2    12 1   
     7     2    25 1   
     8     3     5 1   
     9     3    26 1   
    10     3    27 1   
    11     4    19 1   
    12     4    28 1   
    13     4    29 1   
    14     5    19 1   
    15     5    30 1   
    16     5    31 1   
    17     6     7 1   
    18     6    13 2   
    19     6    45 1   
    20     7     8 2   
    21     7    32 1   
    22     8     9 1   
    23     8    15 1   
    24     9    10 1   
    25     9    11 1   
    26     9    33 1   
    27    10    11 1   
    28    10    34 1   
    29    10    35 1   
    30    11    36 1   
    31    11    37 1   
    32    12    38 1   
    33    12    45 1   
    34    13    15 1   
    35    14    45 2   
    36    16    17 1   
    37    16    18 1   
    38    16    39 1   
    39    16    43 1   
    40    17    22 1   
    41    17    40 1   
    42    17    44 1   
    43    18    41 1   
    44    18    42 1   
    45    19    22 1   
    46    20    22 2   
    47    21    22 2   
@<TRIPOS>SUBSTRUCTURE
     1 L0J         1 TEMP              0 ****  ****    0 ROOT
