@<TRIPOS>MOLECULE
L0J
   45    47     1     0     0
SMALL
bcc


@<TRIPOS>ATOM
      1 C17         -1.2760     0.8690    -1.5120 c6         1 L0J      -0.124900
      2 C20         -0.4410     1.3350    -0.3260 c6         1 L0J       0.116700
      3 C22         -1.1850     1.0830     0.9840 c6         1 L0J      -0.124900
      4 C14         -2.6530     1.5210    -1.4850 c6         1 L0J       0.206300
      5 C25         -2.5650     1.7300     0.9590 c6         1 L0J       0.206300
      6 C32          3.1880     0.3900     0.0740 cc         1 L0J       0.288800
      7 C33          4.4880     0.7600     0.4830 cc         1 L0J      -0.347600
      8 C35          5.2250    -0.3530     0.2330 cd         1 L0J       0.322000
      9 C38          6.6400    -0.6570     0.4190 cx         1 L0J      -0.197000
     10 C40          7.3790    -1.5370    -0.5570 cx         1 L0J      -0.104400
     11 C43          7.0930    -2.0400     0.8130 cx         1 L0J      -0.104400
     12 N28          0.8520     0.6820    -0.3430 ns         1 L0J      -0.559900
     13 N37          3.1560    -0.8320    -0.3750 nd         1 L0J      -0.366300
     14 O31          2.0450     2.3770     0.5830 o          1 L0J      -0.585100
     15 O36          4.4240    -1.2980    -0.2770 os         1 L0J      -0.107100
     16 C04         -4.7280    -2.5390     0.2490 c3         1 L0J       0.184800
     17 C07         -3.7150    -1.4020     0.1660 c3         1 L0J      -0.232600
     18 N01         -4.0130    -3.7860     0.4610 n8         1 L0J      -0.881800
     19 N13         -3.3450     1.3300    -0.2120 n3         1 L0J      -0.750500
     20 O11         -5.2330     0.1420    -1.3320 o          1 L0J      -0.602800
     21 O12         -5.2590     0.4760     1.1520 o          1 L0J      -0.602800
     22 S10         -4.5130     0.1850    -0.0650 s6         1 L0J       1.230900
     23 H1          -0.7830     1.1350    -2.4490 hc         1 L0J       0.058700
     24 H2          -1.3760    -0.2210    -1.5000 hc         1 L0J       0.058700
     25 H3          -0.2690     2.4100    -0.4300 h1         1 L0J       0.083700
     26 H4          -1.2730     0.0060     1.1510 hc         1 L0J       0.058700
     27 H5          -0.6200     1.4940     1.8230 hc         1 L0J       0.058700
     28 H6          -2.5500     2.6000    -1.6320 h1         1 L0J       0.075950
     29 H7          -3.2690     1.1530    -2.3020 h1         1 L0J       0.075950
     30 H8          -3.1160     1.5000     1.8680 h1         1 L0J       0.075950
     31 H9          -2.4640     2.8180     0.9220 h1         1 L0J       0.075950
     32 H10          4.8210     1.6980     0.8930 ha         1 L0J       0.190000
     33 H11          7.1920     0.1730     0.8410 hc         1 L0J       0.100700
     34 H12          6.8200    -1.9540    -1.3850 hc         1 L0J       0.082450
     35 H13          8.3910    -1.2450    -0.8020 hc         1 L0J       0.082450
     36 H14          7.9050    -2.0960     1.5240 hc         1 L0J       0.082450
     37 H15          6.3380    -2.8070     0.9330 hc         1 L0J       0.082450
     38 H16          0.8900    -0.2800    -0.6460 hn         1 L0J       0.333500
     39 H17         -5.3860    -2.3710     1.1030 h1         1 L0J       0.047200
     40 H18         -3.1250    -1.3450     1.0830 h1         1 L0J       0.094700
     41 H19         -4.6810    -4.5160     0.6740 hn         1 L0J       0.340300
     42 H20         -3.5630    -4.0690    -0.4000 hn         1 L0J       0.340300
     43 H21         -5.3560    -2.5340    -0.6480 h1         1 L0J       0.047200
     44 H22         -3.0330    -1.5400    -0.6760 h1         1 L0J       0.094700
     45 C30          1.9690     1.2450     0.1310 c          1 L0J       0.594600
@<TRIPOS>BOND
     1     1     2 1   
     2     1     4 1   
     3     1    23 1   
     4     1    24 1   
     5     2     3 1   
     6     2    12 1   
     7     2    25 1   
     8     3     5 1   
     9     3    26 1   
    10     3    27 1   
    11     4    19 1   
    12     4    28 1   
    13     4    29 1   
    14     5    19 1   
    15     5    30 1   
    16     5    31 1   
    17     6     7 1   
    18     6    13 2   
    19     6    45 1   
    20     7     8 2   
    21     7    32 1   
    22     8     9 1   
    23     8    15 1   
    24     9    10 1   
    25     9    11 1   
    26     9    33 1   
    27    10    11 1   
    28    10    34 1   
    29    10    35 1   
    30    11    36 1   
    31    11    37 1   
    32    12    38 1   
    33    12    45 1   
    34    13    15 1   
    35    14    45 2   
    36    16    17 1   
    37    16    18 1   
    38    16    39 1   
    39    16    43 1   
    40    17    22 1   
    41    17    40 1   
    42    17    44 1   
    43    18    41 1   
    44    18    42 1   
    45    19    22 1   
    46    20    22 2   
    47    21    22 2   
@<TRIPOS>SUBSTRUCTURE
     1 L0J         1 TEMP              0 ****  ****    0 ROOT
