@<TRIPOS>MOLECULE
L0K
   63    67     1     0     0
SMALL
No Charge or Current Charge


@<TRIPOS>ATOM
      1 O3          -1.4690    -1.3740    -0.0580 o          1 L0K      -0.579100
      2 C4           0.2890     4.5230     1.8120 c3         1 L0K       0.149900
      3 C5           0.0290     1.2750    -0.0290 ca         1 L0K      -0.080000
      4 O4           1.9200    -0.9570    -3.3940 o          1 L0K      -0.537500
      5 C6          -1.8640    -0.3790     0.5400 c          1 L0K       0.626100
      6 N1          -4.2400     0.3690    -0.6940 nc         1 L0K      -0.410300
      7 C7          -3.1670    -0.3990     1.3350 c3         1 L0K      -0.184700
      8 C8          -4.3950    -0.2670     0.4700 cd         1 L0K       0.366900
      9 N2          -5.3190     0.5200    -1.5340 ns         1 L0K      -0.233900
     10 C9          -5.7520    -0.7560     0.8590 ca         1 L0K      -0.115900
     11 C10         -6.8460    -0.5890    -0.0310 ca         1 L0K      -0.144600
     12 C11         -8.1310    -1.0510     0.3250 ca         1 L0K      -0.048000
     13 C12         -8.3400    -1.6700     1.5660 ca         1 L0K      -0.112000
     14 N3           3.9310    -0.8580    -1.8440 n3         1 L0K      -0.726500
     15 C13         -7.2700    -1.8250     2.4600 ca         1 L0K      -0.081000
     16 C14         -5.9870    -1.3700     2.1130 ca         1 L0K      -0.107000
     17 C15         -6.6180     0.1010    -1.3490 c          1 L0K       0.554600
     18 O            3.6060     0.9380    -3.6220 o          1 L0K      -0.537500
     19 C26          3.3580    -1.6670    -0.7420 c3         1 L0K       0.202800
     20 C25          3.3940    -1.0100     0.6570 c3         1 L0K      -0.046600
     21 C24          4.7290    -1.1310     1.4020 ca         1 L0K      -0.070300
     22 C23          4.6660    -1.2300     2.8090 ca         1 L0K      -0.110500
     23 C22          5.8310    -1.3590     3.5800 ca         1 L0K      -0.109000
     24 C21          7.0810    -1.3900     2.9520 ca         1 L0K      -0.109000
     25 C20          7.1640    -1.2840     1.5560 ca         1 L0K      -0.110500
     26 C19          6.0040    -1.1440     0.7630 ca         1 L0K      -0.070300
     27 C18          6.2130    -1.0180    -0.7530 c3         1 L0K      -0.046600
     28 C17          5.1830    -0.1480    -1.5020 c3         1 L0K       0.202800
     29 C            1.9200     1.0100    -1.5620 ca         1 L0K      -0.325500
     30 C16          0.7170     0.5250    -1.0100 ca         1 L0K      -0.001000
     31 C3           0.5460     2.5250     0.3740 ca         1 L0K       0.153100
     32 O1          -0.1540     3.2420     1.3290 os         1 L0K      -0.354100
     33 C2           1.7450     3.0100    -0.1900 ca         1 L0K      -0.205000
     34 C1           2.4310     2.2550    -1.1530 ca         1 L0K       0.011000
     35 N           -1.1850     0.8320     0.5750 ns         1 L0K      -0.139000
     36 O2          -7.4930     0.2860    -2.1840 o          1 L0K      -0.536000
     37 H1          -0.4120     4.9100     2.5620 h1         1 L0K       0.047700
     38 H2           1.2780     4.4420     2.2820 h1         1 L0K       0.047700
     39 H3           0.3460     5.2510     0.9930 h1         1 L0K       0.047700
     40 H4          -3.1970    -1.3550     1.8650 hc         1 L0K       0.078200
     41 H5          -3.1730     0.4280     2.0550 hc         1 L0K       0.078200
     42 H6          -5.1530     1.0020    -2.4140 hn         1 L0K       0.361500
     43 H7          -8.9690    -0.9250    -0.3580 ha         1 L0K       0.143000
     44 H8          -9.3320    -2.0230     1.8380 ha         1 L0K       0.123000
     45 H9          -7.4350    -2.2980     3.4260 ha         1 L0K       0.120000
     46 H10         -5.1850    -1.4980     2.8340 ha         1 L0K       0.118000
     47 H11          2.3180    -1.9380    -0.9720 h1         1 L0K       0.064450
     48 H12          3.8960    -2.6210    -0.6720 h1         1 L0K       0.064450
     49 H13          3.1040     0.0430     0.5950 hc         1 L0K       0.061450
     50 H14          2.6080    -1.4920     1.2500 hc         1 L0K       0.061450
     51 H15          3.7030    -1.2100     3.3130 ha         1 L0K       0.110500
     52 H16          5.7620    -1.4370     4.6630 ha         1 L0K       0.113000
     53 H17          7.9870    -1.4940     3.5460 ha         1 L0K       0.113000
     54 H18          8.1440    -1.3070     1.0850 ha         1 L0K       0.110500
     55 H19          7.1970    -0.5700    -0.9390 hc         1 L0K       0.061450
     56 H20          6.2520    -2.0120    -1.2150 hc         1 L0K       0.061450
     57 H21          5.6710     0.1910    -2.4260 h1         1 L0K       0.064450
     58 H22          4.9790     0.7510    -0.9040 h1         1 L0K       0.064450
     59 H23          0.3300    -0.4320    -1.3510 ha         1 L0K       0.162000
     60 H24          2.1620     3.9670     0.1060 ha         1 L0K       0.123000
     61 H25          3.3580     2.6410    -1.5750 ha         1 L0K       0.138000
     62 H26         -1.6350     1.5430     1.1380 hn         1 L0K       0.166000
     63 S            2.8120     0.0330    -2.7820 sy         1 L0K       1.162600
@<TRIPOS>BOND
     1     1     5 2   
     2     2    32 1   
     3     2    37 1   
     4     2    38 1   
     5     2    39 1   
     6     3    30 ar  
     7     3    31 ar  
     8     3    35 1   
     9     4    63 2   
    10     5     7 1   
    11     5    35 1   
    12     6     8 2   
    13     6     9 1   
    14     7     8 1   
    15     7    40 1   
    16     7    41 1   
    17     8    10 1   
    18     9    17 1   
    19     9    42 1   
    20    10    11 ar  
    21    10    16 ar  
    22    11    12 ar  
    23    11    17 1   
    24    12    13 ar  
    25    12    43 1   
    26    13    15 ar  
    27    13    44 1   
    28    14    19 1   
    29    14    28 1   
    30    14    63 1   
    31    15    16 ar  
    32    15    45 1   
    33    16    46 1   
    34    17    36 2   
    35    18    63 2   
    36    19    20 1   
    37    19    47 1   
    38    19    48 1   
    39    20    21 1   
    40    20    49 1   
    41    20    50 1   
    42    21    22 ar  
    43    21    26 ar  
    44    22    23 ar  
    45    22    51 1   
    46    23    24 ar  
    47    23    52 1   
    48    24    25 ar  
    49    24    53 1   
    50    25    26 ar  
    51    25    54 1   
    52    26    27 1   
    53    27    28 1   
    54    27    55 1   
    55    27    56 1   
    56    28    57 1   
    57    28    58 1   
    58    29    30 ar  
    59    29    34 ar  
    60    29    63 1   
    61    30    59 1   
    62    31    32 1   
    63    31    33 ar  
    64    33    34 ar  
    65    33    60 1   
    66    34    61 1   
    67    35    62 1   
@<TRIPOS>SUBSTRUCTURE
     1 L0K         1 TEMP              0 ****  ****    0 ROOT
