@<TRIPOS>MOLECULE
L0K
   63    67     1     0     0
SMALL
abcg2


@<TRIPOS>ATOM
      1 O3          -0.6880    -1.0290     0.5290 o          1 L0K      -0.579100
      2 C4           0.1190     4.8900     1.6270 c3         1 L0K       0.149900
      3 C5           0.0180     1.6810    -0.0870 ca         1 L0K      -0.080000
      4 O4           1.8670    -0.3360    -3.4570 o          1 L0K      -0.537500
      5 C6          -1.4200    -0.1000     0.8030 c          1 L0K       0.626100
      6 N1          -3.5870    -0.4720    -0.7150 nc         1 L0K      -0.410300
      7 C7          -2.7480    -0.2960     1.5080 c3         1 L0K      -0.184700
      8 C8          -3.8680    -0.5290     0.5360 cd         1 L0K       0.366900
      9 N2          -4.5600    -0.6720    -1.6070 ns         1 L0K      -0.233900
     10 C9          -5.2070    -0.8010     1.0100 ca         1 L0K      -0.115900
     11 C10         -6.2130    -1.0020     0.0550 ca         1 L0K      -0.144600
     12 C11         -7.5240    -1.2600     0.4530 ca         1 L0K      -0.048000
     13 C12         -7.8330    -1.3190     1.7950 ca         1 L0K      -0.112000
     14 N3           3.7650    -0.4670    -1.8330 n3         1 L0K      -0.726500
     15 C13         -6.8360    -1.1220     2.7530 ca         1 L0K      -0.081000
     16 C14         -5.5360    -0.8660     2.3690 ca         1 L0K      -0.107000
     17 C15         -5.8760    -0.9360    -1.3670 c          1 L0K       0.554600
     18 O            3.6770     1.4010    -3.4890 o          1 L0K      -0.537500
     19 C26          3.1220    -1.5450    -1.0780 c3         1 L0K       0.202800
     20 C25          2.9910    -1.2740     0.4180 c3         1 L0K      -0.046600
     21 C24          4.2180    -1.5790     1.2410 ca         1 L0K      -0.070300
     22 C23          4.0280    -2.0580     2.5380 ca         1 L0K      -0.110500
     23 C22          5.0930    -2.3590     3.3710 ca         1 L0K      -0.109000
     24 C21          6.3880    -2.1830     2.9070 ca         1 L0K      -0.109000
     25 C20          6.5900    -1.7070     1.6220 ca         1 L0K      -0.110500
     26 C19          5.5250    -1.4000     0.7730 ca         1 L0K      -0.070300
     27 C18          5.8620    -0.8980    -0.6110 c3         1 L0K      -0.046600
     28 C17          4.9300     0.1540    -1.2000 c3         1 L0K       0.202800
     29 C            1.8690     1.5060    -1.6070 ca         1 L0K      -0.325500
     30 C16          0.7000     0.9780    -1.0630 ca         1 L0K      -0.001000
     31 C3           0.4900     2.9520     0.3070 ca         1 L0K       0.153100
     32 O1          -0.2440     3.5760     1.2330 os         1 L0K      -0.354100
     33 C2           1.6430     3.4730    -0.2670 ca         1 L0K      -0.205000
     34 C1           2.3450     2.7440    -1.2150 ca         1 L0K       0.011000
     35 N           -1.1420     1.1990     0.5210 ns         1 L0K      -0.139000
     36 O2          -6.6700    -1.0980    -2.2820 o          1 L0K      -0.536000
     37 H1          -0.6310     5.2110     2.3450 h1         1 L0K       0.047700
     38 H2           1.1000     4.9090     2.1070 h1         1 L0K       0.047700
     39 H3           0.1200     5.5760     0.7790 h1         1 L0K       0.047700
     40 H4          -2.6510    -1.1580     2.1730 hc         1 L0K       0.078200
     41 H5          -2.9870     0.5610     2.1440 hc         1 L0K       0.078200
     42 H6          -4.2570    -0.6100    -2.5700 hn         1 L0K       0.361500
     43 H7          -8.2910    -1.4120    -0.2940 ha         1 L0K       0.143000
     44 H8          -8.8490    -1.5190     2.1080 ha         1 L0K       0.123000
     45 H9          -7.0830    -1.1710     3.8050 ha         1 L0K       0.120000
     46 H10         -4.7770    -0.7180     3.1260 ha         1 L0K       0.118000
     47 H11          2.1400    -1.7370    -1.5030 h1         1 L0K       0.064450
     48 H12          3.6930    -2.4610    -1.2430 h1         1 L0K       0.064450
     49 H13          2.6710    -0.2410     0.5840 hc         1 L0K       0.061450
     50 H14          2.1650    -1.8830     0.7890 hc         1 L0K       0.061450
     51 H15          3.0150    -2.2050     2.8970 ha         1 L0K       0.110500
     52 H16          4.9100    -2.7300     4.3710 ha         1 L0K       0.113000
     53 H17          7.2370    -2.4090     3.5410 ha         1 L0K       0.113000
     54 H18          7.6030    -1.5620     1.2630 ha         1 L0K       0.110500
     55 H19          6.8560    -0.4490    -0.5700 hc         1 L0K       0.061450
     56 H20          5.9520    -1.7310    -1.3150 hc         1 L0K       0.061450
     57 H21          5.4780     0.7070    -1.9590 h1         1 L0K       0.064450
     58 H22          4.6440     0.8690    -0.4190 h1         1 L0K       0.064450
     59 H23          0.3210     0.0250    -1.3970 ha         1 L0K       0.162000
     60 H24          2.0180     4.4440     0.0220 ha         1 L0K       0.123000
     61 H25          3.2480     3.1600    -1.6410 ha         1 L0K       0.138000
     62 H26         -1.7870     1.8920     0.8700 hn         1 L0K       0.166000
     63 S            2.7980     0.5190    -2.7370 sy         1 L0K       1.162600
@<TRIPOS>BOND
     1     1     5 2   
     2     2    32 1   
     3     2    37 1   
     4     2    38 1   
     5     2    39 1   
     6     3    30 ar  
     7     3    31 ar  
     8     3    35 1   
     9     4    63 2   
    10     5     7 1   
    11     5    35 1   
    12     6     8 2   
    13     6     9 1   
    14     7     8 1   
    15     7    40 1   
    16     7    41 1   
    17     8    10 1   
    18     9    17 1   
    19     9    42 1   
    20    10    11 ar  
    21    10    16 ar  
    22    11    12 ar  
    23    11    17 1   
    24    12    13 ar  
    25    12    43 1   
    26    13    15 ar  
    27    13    44 1   
    28    14    19 1   
    29    14    28 1   
    30    14    63 1   
    31    15    16 ar  
    32    15    45 1   
    33    16    46 1   
    34    17    36 2   
    35    18    63 2   
    36    19    20 1   
    37    19    47 1   
    38    19    48 1   
    39    20    21 1   
    40    20    49 1   
    41    20    50 1   
    42    21    22 ar  
    43    21    26 ar  
    44    22    23 ar  
    45    22    51 1   
    46    23    24 ar  
    47    23    52 1   
    48    24    25 ar  
    49    24    53 1   
    50    25    26 ar  
    51    25    54 1   
    52    26    27 1   
    53    27    28 1   
    54    27    55 1   
    55    27    56 1   
    56    28    57 1   
    57    28    58 1   
    58    29    30 ar  
    59    29    34 ar  
    60    29    63 1   
    61    30    59 1   
    62    31    32 1   
    63    31    33 ar  
    64    33    34 ar  
    65    33    60 1   
    66    34    61 1   
    67    35    62 1   
@<TRIPOS>SUBSTRUCTURE
     1 L0K         1 TEMP              0 ****  ****    0 ROOT
