@<TRIPOS>MOLECULE
L0M
   55    60     1     0     0
SMALL
abcg2


@<TRIPOS>ATOM
      1 C1           5.8480    -2.8750    -1.0120 c3         1 L0M      -0.144400
      2 C2           4.5580    -2.9340    -0.2680 cc         1 L0M       0.424300
      3 C4           2.9420    -4.0900     0.8870 cd         1 L0M       0.302900
      4 C5           2.1730    -2.9950     1.1000 cc         1 L0M      -0.162000
      5 C7           3.8160    -1.7370    -0.0850 cc         1 L0M      -0.131000
      6 C11          4.1160     2.4550    -0.1610 ca         1 L0M      -0.085000
      7 C12          4.0760     3.8240    -0.3780 ca         1 L0M      -0.119000
      8 C15          1.7690     2.3090    -0.6580 ca         1 L0M      -0.085000
      9 C16          2.1090    -0.5470     0.6290 cc         1 L0M      -0.052500
     10 C18         -0.2880    -0.3340     0.7160 c          1 L0M       0.563100
     11 C23         -1.9350     2.4740     0.4240 ca         1 L0M      -0.136500
     12 C24         -2.2200     3.7180    -0.1320 ca         1 L0M      -0.100000
     13 C27         -4.1210     1.7200    -0.1880 ca         1 L0M       0.129500
     14 O28         -5.1050     0.7730    -0.1800 os         1 L0M      -0.315000
     15 C30         -5.5850    -1.5100    -0.4910 ca         1 L0M      -0.100000
     16 C31         -5.2540    -2.8520    -0.3310 ca         1 L0M      -0.111500
     17 C32         -4.0420    -3.1870     0.2450 ca         1 L0M      -0.100000
     18 C33         -3.1580    -2.1960     0.6600 ca         1 L0M      -0.136500
     19 C34         -3.4870    -0.8510     0.5320 ca         1 L0M      -0.031500
     20 N3           4.1210    -4.0660     0.2080 nd         1 L0M      -0.667000
     21 N6           2.6270    -1.8110     0.5960 na         1 L0M       0.148100
     22 N8           4.0680    -0.5030    -0.4750 nd         1 L0M      -0.263600
     23 C9           3.0220     0.2400    -0.0500 cd         1 L0M       0.150400
     24 C10          2.9600     1.6850    -0.2880 ca         1 L0M      -0.027800
     25 C13          2.8820     4.4410    -0.7320 ca         1 L0M      -0.102000
     26 C14          1.7310     3.6790    -0.8760 ca         1 L0M      -0.119000
     27 N17          0.9350    -0.2550     1.3070 ns         1 L0M      -0.417100
     28 O19         -0.4420    -0.6110    -0.4520 o          1 L0M      -0.537100
     29 C20         -1.4540    -0.0650     1.6600 c3         1 L0M      -0.003400
     30 N21         -2.6760     0.1970     0.9690 na         1 L0M      -0.069000
     31 C22         -2.8830     1.4560     0.4070 ca         1 L0M      -0.031500
     32 C25         -3.4440     3.9570    -0.7270 ca         1 L0M      -0.111500
     33 C26         -4.3980     2.9430    -0.7610 ca         1 L0M      -0.100000
     34 C29         -4.7160    -0.5320    -0.0540 ca         1 L0M       0.129500
     35 H1           6.2900    -3.8660    -1.0830 hc         1 L0M       0.064700
     36 H2           5.6970    -2.4830    -2.0190 hc         1 L0M       0.064700
     37 H3           6.5540    -2.2090    -0.5140 hc         1 L0M       0.064700
     38 H4           2.6190    -5.0490     1.2680 h4         1 L0M       0.035100
     39 H5           1.2400    -3.0000     1.6410 h4         1 L0M       0.151000
     40 H6           5.0470     1.9800     0.1200 ha         1 L0M       0.125500
     41 H7           4.9780     4.4110    -0.2690 ha         1 L0M       0.113500
     42 H8           0.8760     1.7190    -0.8210 ha         1 L0M       0.125500
     43 H10         -1.4690     4.4960    -0.0920 ha         1 L0M       0.116000
     44 H11         -6.5250    -1.2180    -0.9410 ha         1 L0M       0.131000
     45 H12         -5.9420    -3.6190    -0.6590 ha         1 L0M       0.120000
     46 H13         -3.7630    -4.2250     0.3690 ha         1 L0M       0.116000
     47 H14         -2.2130    -2.4980     1.0880 ha         1 L0M       0.111500
     48 H15          2.8520     5.5090    -0.9000 ha         1 L0M       0.112000
     49 H16          0.8030     4.1480    -1.1750 ha         1 L0M       0.113500
     50 H17          0.9950     0.0110     2.2810 hn         1 L0M       0.329500
     51 H18         -1.5780    -0.9290     2.3170 h1         1 L0M       0.076200
     52 H19         -1.2250     0.7650     2.3320 h1         1 L0M       0.076200
     53 H20         -3.6680     4.9200    -1.1650 ha         1 L0M       0.120000
     54 H21         -5.3670     3.1070    -1.2160 ha         1 L0M       0.131000
     55 H9          -0.9660     2.3240     0.8810 ha         1 L0M       0.111500
@<TRIPOS>BOND
     1     1     2 1   
     2     1    35 1   
     3     1    36 1   
     4     1    37 1   
     5     2     5 1   
     6     2    20 2   
     7     3     4 2   
     8     3    20 1   
     9     3    38 1   
    10     4    21 1   
    11     4    39 1   
    12     5    21 1   
    13     5    22 2   
    14     6     7 ar  
    15     6    24 ar  
    16     6    40 1   
    17     7    25 ar  
    18     7    41 1   
    19     8    24 ar  
    20     8    26 ar  
    21     8    42 1   
    22     9    21 1   
    23     9    23 2   
    24     9    27 1   
    25    10    27 1   
    26    10    28 2   
    27    10    29 1   
    28    11    12 ar  
    29    11    31 ar  
    30    11    55 1   
    31    12    32 ar  
    32    12    43 1   
    33    13    14 1   
    34    13    31 ar  
    35    13    33 ar  
    36    14    34 1   
    37    15    16 ar  
    38    15    34 ar  
    39    15    44 1   
    40    16    17 ar  
    41    16    45 1   
    42    17    18 ar  
    43    17    46 1   
    44    18    19 ar  
    45    18    47 1   
    46    19    30 1   
    47    19    34 ar  
    48    22    23 1   
    49    23    24 1   
    50    25    26 ar  
    51    25    48 1   
    52    26    49 1   
    53    27    50 1   
    54    29    30 1   
    55    29    51 1   
    56    29    52 1   
    57    30    31 1   
    58    32    33 ar  
    59    32    53 1   
    60    33    54 1   
@<TRIPOS>SUBSTRUCTURE
     1 L0M         1 TEMP              0 ****  ****    0 ROOT
