@<TRIPOS>MOLECULE
L0M
   55    60     1     0     0
SMALL
No Charge or Current Charge


@<TRIPOS>ATOM
      1 C1           5.9340    -2.9520    -0.9330 c3         1 L0M      -0.144400
      2 C2           4.4420    -2.8600    -0.7680 cc         1 L0M       0.424300
      3 C4           2.3500    -3.8280    -0.6550 cd         1 L0M       0.302900
      4 C5           1.7620    -2.6410    -0.2070 cc         1 L0M      -0.162000
      5 C7           3.8890    -1.6180    -0.3610 cc         1 L0M      -0.131000
      6 C11          5.0150     2.1260     1.1670 ca         1 L0M      -0.085000
      7 C12          5.3240     3.4380     1.5650 ca         1 L0M      -0.119000
      8 C15          2.6960     2.7650     0.8530 ca         1 L0M      -0.085000
      9 C16          2.1840    -0.2790     0.2100 cc         1 L0M      -0.052500
     10 C18         -0.3000    -0.0470    -0.0690 c          1 L0M       0.563100
     11 C23         -2.6970     1.9970    -1.7210 ca         1 L0M      -0.136500
     12 C24         -3.3540     2.9020    -2.5740 ca         1 L0M      -0.100000
     13 C27         -4.8540     1.2330    -0.8910 ca         1 L0M       0.129500
     14 O28         -5.6040     0.3890    -0.1050 os         1 L0M      -0.315000
     15 C30         -5.8150    -1.6760     1.0960 ca         1 L0M      -0.100000
     16 C31         -5.2210    -2.7910     1.7110 ca         1 L0M      -0.111500
     17 C32         -3.8220    -2.9070     1.7500 ca         1 L0M      -0.100000
     18 C33         -3.0120    -1.9050     1.1850 ca         1 L0M      -0.136500
     19 C34         -3.5980    -0.7710     0.5780 ca         1 L0M      -0.031500
     20 N3           3.7130    -3.9480    -0.9880 nd         1 L0M      -0.667000
     21 N6           2.5480    -1.4990    -0.3190 na         1 L0M       0.148100
     22 N8           4.4520    -0.4770    -0.0030 nd         1 L0M      -0.263600
     23 C9           3.4080     0.3610     0.3880 cd         1 L0M       0.150400
     24 C10          3.6910     1.7560     0.8280 ca         1 L0M      -0.027800
     25 C13          4.3200     4.4140     1.6130 ca         1 L0M      -0.102000
     26 C14          3.0080     4.0770     1.2500 ca         1 L0M      -0.119000
     27 N17          0.9140     0.2070     0.5470 ns         1 L0M      -0.417100
     28 O19         -0.3940    -0.7130    -1.0920 o          1 L0M      -0.537100
     29 C20         -1.5060     0.6040     0.6270 c3         1 L0M      -0.003400
     30 N21         -2.8220     0.2630     0.0270 na         1 L0M      -0.069000
     31 C22         -3.4420     1.1600    -0.8590 ca         1 L0M      -0.031500
     32 C25         -4.7560     2.9780    -2.5810 ca         1 L0M      -0.111500
     33 C26         -5.5070     2.1390    -1.7410 ca         1 L0M      -0.100000
     34 C29         -5.0080    -0.6760     0.5290 ca         1 L0M       0.129500
     35 H1           6.2410    -3.9380    -1.3010 hc         1 L0M       0.064700
     36 H2           6.2900    -2.2010    -1.6480 hc         1 L0M       0.064700
     37 H3           6.4380    -2.7770     0.0240 hc         1 L0M       0.064700
     38 H4           1.7750    -4.7430    -0.7230 h4         1 L0M       0.035100
     39 H5           0.7400    -2.5520     0.1250 h4         1 L0M       0.151000
     40 H6           5.8170     1.3910     1.1430 ha         1 L0M       0.125500
     41 H7           6.3460     3.6970     1.8350 ha         1 L0M       0.113500
     42 H8           1.6800     2.5650     0.5350 ha         1 L0M       0.125500
     43 H10         -2.7730     3.5450    -3.2330 ha         1 L0M       0.116000
     44 H11         -6.8970    -1.5880     1.0510 ha         1 L0M       0.131000
     45 H12         -5.8450    -3.5680     2.1490 ha         1 L0M       0.120000
     46 H13         -3.3630    -3.7750     2.2180 ha         1 L0M       0.116000
     47 H14         -1.9320    -2.0230     1.2240 ha         1 L0M       0.111500
     48 H15          4.5590     5.4310     1.9180 ha         1 L0M       0.112000
     49 H16          2.2310     4.8380     1.2630 ha         1 L0M       0.113500
     50 H17          0.8610     0.8880     1.2980 hn         1 L0M       0.329500
     51 H18         -1.4970     0.2960     1.6790 h1         1 L0M       0.076200
     52 H19         -1.3640     1.6900     0.6100 h1         1 L0M       0.076200
     53 H20         -5.2610     3.6790    -3.2430 ha         1 L0M       0.120000
     54 H21         -6.5930     2.1840    -1.7540 ha         1 L0M       0.131000
     55 H9          -1.6110     1.9530    -1.7410 ha         1 L0M       0.111500
@<TRIPOS>BOND
     1     1     2 1   
     2     1    35 1   
     3     1    36 1   
     4     1    37 1   
     5     2     5 1   
     6     2    20 2   
     7     3     4 2   
     8     3    20 1   
     9     3    38 1   
    10     4    21 1   
    11     4    39 1   
    12     5    21 1   
    13     5    22 2   
    14     6     7 ar  
    15     6    24 ar  
    16     6    40 1   
    17     7    25 ar  
    18     7    41 1   
    19     8    24 ar  
    20     8    26 ar  
    21     8    42 1   
    22     9    21 1   
    23     9    23 2   
    24     9    27 1   
    25    10    27 1   
    26    10    28 2   
    27    10    29 1   
    28    11    12 ar  
    29    11    31 ar  
    30    11    55 1   
    31    12    32 ar  
    32    12    43 1   
    33    13    14 1   
    34    13    31 ar  
    35    13    33 ar  
    36    14    34 1   
    37    15    16 ar  
    38    15    34 ar  
    39    15    44 1   
    40    16    17 ar  
    41    16    45 1   
    42    17    18 ar  
    43    17    46 1   
    44    18    19 ar  
    45    18    47 1   
    46    19    30 1   
    47    19    34 ar  
    48    22    23 1   
    49    23    24 1   
    50    25    26 ar  
    51    25    48 1   
    52    26    49 1   
    53    27    50 1   
    54    29    30 1   
    55    29    51 1   
    56    29    52 1   
    57    30    31 1   
    58    32    33 ar  
    59    32    53 1   
    60    33    54 1   
@<TRIPOS>SUBSTRUCTURE
     1 L0M         1 TEMP              0 ****  ****    0 ROOT
