@<TRIPOS>MOLECULE
L0N
   74    78     1     0     0
SMALL
bcc


@<TRIPOS>ATOM
      1 C4           1.6100    -3.3040     0.5730 ca         1 L0N       0.463800
      2 C5           2.1190    -2.0530     0.1960 ca         1 L0N      -0.335400
      3 C6           3.5200    -1.9920     0.1540 ca         1 L0N       0.737600
      4 N1           4.2480    -3.0420     0.4830 nb         1 L0N      -0.836000
      5 N3           2.3290    -4.3740     0.9120 nb         1 L0N      -0.740000
      6 CBD         -6.0880     0.5780    -0.6390 c6         1 L0N       0.203800
      7 CBF         -7.4820     0.9300    -0.1610 c6         1 L0N       0.155300
      8 NBG         -8.4230    -0.1120    -0.5110 n3         1 L0N      -0.712600
      9 CBI         -9.7730     0.2380    -0.1320 c3         1 L0N       0.151100
     10 CBH         -8.0050    -1.3630     0.0830 c6         1 L0N       0.155300
     11 CBE         -6.6180    -1.7600    -0.3860 c6         1 L0N       0.203800
     12 NBC         -5.6640    -0.7070    -0.1030 nh         1 L0N      -0.658000
     13 CAQ         -4.3130    -1.0120    -0.0970 ca         1 L0N       0.183600
     14 CAR         -3.3580    -0.0490     0.2770 ca         1 L0N      -0.191000
     15 CAS         -2.0150    -0.3530     0.3430 ca         1 L0N      -0.075000
     16 CAP         -3.8320    -2.2910    -0.4140 ca         1 L0N      -0.191000
     17 CAO         -2.4810    -2.5870    -0.3410 ca         1 L0N      -0.075000
     18 CAJ         -1.5400    -1.6310     0.0360 ca         1 L0N      -0.090800
     19 CAH         -0.1240    -1.9660     0.1340 cc         1 L0N       0.012700
     20 NAG          0.2630    -3.2290     0.5240 na         1 L0N      -0.258100
     21 C2           3.6250    -4.1660     0.8480 ca         1 L0N       0.700900
     22 OAL          4.1010    -0.8690    -0.2240 os         1 L0N      -0.423100
     23 CAM          5.5270    -0.8250    -0.3180 c3         1 L0N       0.148400
     24 CAN          5.9450     0.5880    -0.6850 c3         1 L0N      -0.067700
     25 CBL          5.5860     1.5870     0.4090 c3         1 L0N      -0.087100
     26 CBK          7.4460     0.5980    -0.9590 c3         1 L0N      -0.087100
     27 CAI          1.0030    -1.2040    -0.0900 cd         1 L0N      -0.034400
     28 CAK          1.0370     0.1830    -0.5750 ca         1 L0N       0.009200
     29 CAT          1.6790     1.1690     0.1640 ca         1 L0N      -0.160000
     30 CAX          0.4250     0.5330    -1.7780 ca         1 L0N      -0.135000
     31 CAW          0.4580     1.8490    -2.2080 ca         1 L0N      -0.113000
     32 CAV          1.0950     2.8370    -1.4690 ca         1 L0N      -0.140000
     33 CAU          1.7180     2.4930    -0.2700 ca         1 L0N       0.061600
     34 NAY          2.3720     3.4130     0.5600 ns         1 L0N      -0.478100
     35 CAZ          2.9510     4.5950     0.2230 c          1 L0N       0.671100
     36 OBJ          2.8650     5.0980    -0.8820 o          1 L0N      -0.580100
     37 CBA          3.7560     5.2240     1.3410 c3         1 L0N      -0.159400
     38 CBB          3.7300     6.7430     1.3080 c3         1 L0N      -0.079100
     39 H1          -6.0720     0.5580    -1.7380 h1         1 L0N       0.046700
     40 H2          -5.4100     1.3660    -0.3210 h1         1 L0N       0.046700
     41 H3          -7.4570     1.1090     0.9280 h1         1 L0N       0.040450
     42 H4          -7.7860     1.8660    -0.6350 h1         1 L0N       0.040450
     43 H6         -10.0770     1.1560    -0.6380 h1         1 L0N       0.032700
     44 H7         -10.4620    -0.5530    -0.4320 h1         1 L0N       0.032700
     45 H8          -9.8930     0.3960     0.9510 h1         1 L0N       0.032700
     46 H9          -8.0110    -1.3130     1.1860 h1         1 L0N       0.040450
     47 H10         -8.7060    -2.1510    -0.2050 h1         1 L0N       0.040450
     48 H11         -6.3320    -2.6650     0.1510 h1         1 L0N       0.046700
     49 H12         -6.6450    -2.0050    -1.4580 h1         1 L0N       0.046700
     50 H13         -3.6670     0.9480     0.5620 ha         1 L0N       0.134500
     51 H14         -1.3250     0.4160     0.6650 ha         1 L0N       0.134000
     52 H15         -4.5030    -3.0730    -0.7390 ha         1 L0N       0.134500
     53 H16         -2.1640    -3.5860    -0.6180 ha         1 L0N       0.134000
     54 H17         -0.3640    -3.9630     0.8160 hn         1 L0N       0.314700
     55 H18          4.2680    -4.9970     1.1170 h5         1 L0N       0.047100
     56 H19          5.9790    -1.1180     0.6340 h1         1 L0N       0.051700
     57 H20          5.8640    -1.5370    -1.0770 h1         1 L0N       0.051700
     58 H21          5.4250     0.8700    -1.6070 hc         1 L0N       0.066700
     59 H22          5.8950     2.5960     0.1290 hc         1 L0N       0.035700
     60 H23          4.5150     1.6120     0.6010 hc         1 L0N       0.035700
     61 H24          6.0890     1.3340     1.3450 hc         1 L0N       0.035700
     62 H25          7.7140    -0.0850    -1.7660 hc         1 L0N       0.035700
     63 H26          7.7790     1.5960    -1.2430 hc         1 L0N       0.035700
     64 H27          8.0100     0.3020    -0.0710 hc         1 L0N       0.035700
     65 H28          2.1490     0.9020     1.1030 ha         1 L0N       0.132000
     66 H29         -0.0750    -0.2230    -2.3680 ha         1 L0N       0.139000
     67 H30         -0.0220     2.1200    -3.1400 ha         1 L0N       0.132000
     68 H31          1.0930     3.8540    -1.8250 ha         1 L0N       0.160000
     69 H32          2.5420     3.0910     1.5010 hn         1 L0N       0.313500
     70 H33          3.4200     4.8570     2.3120 hc         1 L0N       0.056200
     71 H34          4.7860     4.8700     1.2270 hc         1 L0N       0.056200
     72 H35          4.0920     7.1300     0.3570 hc         1 L0N       0.044033
     73 H36          2.7220     7.1270     1.4670 hc         1 L0N       0.044033
     74 H37          4.3660     7.1440     2.0960 hc         1 L0N       0.044033
@<TRIPOS>BOND
     1     1     2 ar  
     2     1     5 ar  
     3     1    20 1   
     4     2     3 ar  
     5     2    27 1   
     6     3     4 ar  
     7     3    22 1   
     8     4    21 ar  
     9     5    21 ar  
    10     6     7 1   
    11     6    12 1   
    12     6    39 1   
    13     6    40 1   
    14     7     8 1   
    15     7    41 1   
    16     7    42 1   
    17     8     9 1   
    18     8    10 1   
    19     9    43 1   
    20     9    44 1   
    21     9    45 1   
    22    10    11 1   
    23    10    46 1   
    24    10    47 1   
    25    11    12 1   
    26    11    48 1   
    27    11    49 1   
    28    12    13 1   
    29    13    14 ar  
    30    13    16 ar  
    31    14    15 ar  
    32    14    50 1   
    33    15    18 ar  
    34    15    51 1   
    35    16    17 ar  
    36    16    52 1   
    37    17    18 ar  
    38    17    53 1   
    39    18    19 1   
    40    19    20 1   
    41    19    27 2   
    42    20    54 1   
    43    21    55 1   
    44    22    23 1   
    45    23    24 1   
    46    23    56 1   
    47    23    57 1   
    48    24    25 1   
    49    24    26 1   
    50    24    58 1   
    51    25    59 1   
    52    25    60 1   
    53    25    61 1   
    54    26    62 1   
    55    26    63 1   
    56    26    64 1   
    57    27    28 1   
    58    28    29 ar  
    59    28    30 ar  
    60    29    33 ar  
    61    29    65 1   
    62    30    31 ar  
    63    30    66 1   
    64    31    32 ar  
    65    31    67 1   
    66    32    33 ar  
    67    32    68 1   
    68    33    34 1   
    69    34    35 1   
    70    34    69 1   
    71    35    36 2   
    72    35    37 1   
    73    37    38 1   
    74    37    70 1   
    75    37    71 1   
    76    38    72 1   
    77    38    73 1   
    78    38    74 1   
@<TRIPOS>SUBSTRUCTURE
     1 L0N         1 TEMP              0 ****  ****    0 ROOT
