@<TRIPOS>MOLECULE
L0N
   74    78     1     0     0
SMALL
No Charge or Current Charge


@<TRIPOS>ATOM
      1 C4           1.7450    -3.5020     0.8210 ca         1 L0N       0.135500
      2 C5           2.1990    -2.2350     0.5100 ca         1 L0N      -0.204800
      3 C6           3.5920    -2.0150     0.4030 ca         1 L0N       0.409300
      4 N1           4.4450    -3.0350     0.6580 nb         1 L0N      -0.310000
      5 N3           2.5860    -4.5200     1.0700 nb         1 L0N      -0.214000
      6 CBD         -5.9050     0.6030    -0.9320 c6         1 L0N       0.203800
      7 CBF         -7.3220     1.1460    -0.5550 c6         1 L0N       0.155300
      8 NBG         -8.4030     0.1300    -0.7440 n3         1 L0N      -0.712600
      9 CBI         -9.7460     0.6600    -0.4280 c3         1 L0N       0.151100
     10 CBH         -8.0730    -1.1070     0.0280 c6         1 L0N       0.155300
     11 CBE         -6.6710    -1.6970    -0.3370 c6         1 L0N       0.203800
     12 NBC         -5.5730    -0.6810    -0.2350 nh         1 L0N      -0.796400
     13 CAQ         -4.2230    -1.0750    -0.0780 ca         1 L0N       0.322000
     14 CAR         -3.3090    -0.2040     0.5400 ca         1 L0N      -0.173000
     15 CAS         -1.9630    -0.5730     0.7050 ca         1 L0N      -0.057000
     16 CAP         -3.7660    -2.3320    -0.5210 ca         1 L0N      -0.173000
     17 CAO         -2.4200    -2.7040    -0.3590 ca         1 L0N      -0.057000
     18 CAJ         -1.5040    -1.8220     0.2440 ca         1 L0N      -0.090800
     19 CAH         -0.1070    -2.2270     0.4170 cc         1 L0N       0.012700
     20 NAG          0.3650    -3.4940     0.7710 na         1 L0N      -0.308400
     21 C2           3.9020    -4.2280     0.9860 ca         1 L0N       0.174900
     22 OAL          4.0860    -0.7870     0.0300 os         1 L0N      -0.446300
     23 CAM          5.4430    -0.6320    -0.4250 c3         1 L0N       0.171600
     24 CAN          5.7030     0.8750    -0.6690 c3         1 L0N      -0.067700
     25 CBL          5.7640     1.6730     0.6560 c3         1 L0N      -0.087100
     26 CBK          6.9830     1.0960    -1.5050 c3         1 L0N      -0.087100
     27 CAI          1.0120    -1.4080     0.2790 cd         1 L0N      -0.034400
     28 CAK          1.0270    -0.0460    -0.3010 ca         1 L0N       0.009200
     29 CAT          1.8360     0.9660     0.2510 ca         1 L0N      -0.142000
     30 CAX          0.1930     0.2780    -1.3910 ca         1 L0N      -0.117000
     31 CAW          0.1900     1.5740    -1.9290 ca         1 L0N      -0.095000
     32 CAV          1.0160     2.5680    -1.3800 ca         1 L0N      -0.122000
     33 CAU          1.8480     2.2690    -0.2810 ca         1 L0N      -0.031000
     34 NAY          2.6880     3.2300     0.3440 ns         1 L0N      -0.152000
     35 CAZ          3.0890     4.5040    -0.0340 c          1 L0N       0.604100
     36 OBJ          2.7890     5.0370    -1.0960 o          1 L0N      -0.580100
     37 CBA          4.0070     5.2030     0.9800 c3         1 L0N      -0.159400
     38 CBB          3.2790     6.3480     1.7170 c3         1 L0N      -0.079100
     39 H1          -5.8680     0.4490    -2.0210 h1         1 L0N       0.046700
     40 H2          -5.1650     1.3810    -0.6940 h1         1 L0N       0.046700
     41 H3          -7.2980     1.4770     0.4940 h1         1 L0N       0.040450
     42 H4          -7.5270     2.0380    -1.1650 h1         1 L0N       0.040450
     43 H6          -9.9720     1.5390    -1.0460 h1         1 L0N       0.032700
     44 H7         -10.5180    -0.0970    -0.6230 h1         1 L0N       0.032700
     45 H8          -9.8130     0.9560     0.6280 h1         1 L0N       0.032700
     46 H9          -8.0870    -0.8900     1.1060 h1         1 L0N       0.040450
     47 H10         -8.8340    -1.8810    -0.1510 h1         1 L0N       0.040450
     48 H11         -6.4710    -2.5440     0.3350 h1         1 L0N       0.046700
     49 H12         -6.7150    -2.0940    -1.3620 h1         1 L0N       0.046700
     50 H13         -3.6440     0.7590     0.9100 ha         1 L0N       0.116500
     51 H14         -1.2790     0.1120     1.2010 ha         1 L0N       0.116000
     52 H15         -4.4460    -3.0250    -1.0070 ha         1 L0N       0.116500
     53 H16         -2.0870    -3.6760    -0.7160 ha         1 L0N       0.116000
     54 H17         -0.2180    -4.3000     0.9630 hn         1 L0N       0.365000
     55 H18          4.5960    -5.0420     1.1890 h5         1 L0N       0.047100
     56 H19          6.1600    -1.0090     0.3170 h1         1 L0N       0.051700
     57 H20          5.5910    -1.1900    -1.3600 h1         1 L0N       0.051700
     58 H21          4.8610     1.2640    -1.2560 hc         1 L0N       0.066700
     59 H22          5.8890     2.7440     0.4560 hc         1 L0N       0.035700
     60 H23          4.8470     1.5390     1.2400 hc         1 L0N       0.035700
     61 H24          6.6090     1.3400     1.2720 hc         1 L0N       0.035700
     62 H25          6.9120     0.5760    -2.4680 hc         1 L0N       0.035700
     63 H26          7.1340     2.1630    -1.7080 hc         1 L0N       0.035700
     64 H27          7.8660     0.7180    -0.9750 hc         1 L0N       0.035700
     65 H28          2.4430     0.7420     1.1240 ha         1 L0N       0.114000
     66 H29         -0.4410    -0.4820    -1.8390 ha         1 L0N       0.121000
     67 H30         -0.4540     1.8090    -2.7730 ha         1 L0N       0.114000
     68 H31          0.9800     3.5650    -1.8100 ha         1 L0N       0.142000
     69 H32          3.0600     2.9270     1.2340 hn         1 L0N       0.147000
     70 H33          4.3590     4.4840     1.7300 hc         1 L0N       0.056200
     71 H34          4.8640     5.6280     0.4460 hc         1 L0N       0.056200
     72 H35          2.9310     7.1100     1.0080 hc         1 L0N       0.044033
     73 H36          2.4100     5.9660     2.2680 hc         1 L0N       0.044033
     74 H37          3.9530     6.8320     2.4350 hc         1 L0N       0.044033
@<TRIPOS>BOND
     1     1     2 ar  
     2     1     5 ar  
     3     1    20 1   
     4     2     3 ar  
     5     2    27 1   
     6     3     4 ar  
     7     3    22 1   
     8     4    21 ar  
     9     5    21 ar  
    10     6     7 1   
    11     6    12 1   
    12     6    39 1   
    13     6    40 1   
    14     7     8 1   
    15     7    41 1   
    16     7    42 1   
    17     8     9 1   
    18     8    10 1   
    19     9    43 1   
    20     9    44 1   
    21     9    45 1   
    22    10    11 1   
    23    10    46 1   
    24    10    47 1   
    25    11    12 1   
    26    11    48 1   
    27    11    49 1   
    28    12    13 1   
    29    13    14 ar  
    30    13    16 ar  
    31    14    15 ar  
    32    14    50 1   
    33    15    18 ar  
    34    15    51 1   
    35    16    17 ar  
    36    16    52 1   
    37    17    18 ar  
    38    17    53 1   
    39    18    19 1   
    40    19    20 1   
    41    19    27 2   
    42    20    54 1   
    43    21    55 1   
    44    22    23 1   
    45    23    24 1   
    46    23    56 1   
    47    23    57 1   
    48    24    25 1   
    49    24    26 1   
    50    24    58 1   
    51    25    59 1   
    52    25    60 1   
    53    25    61 1   
    54    26    62 1   
    55    26    63 1   
    56    26    64 1   
    57    27    28 1   
    58    28    29 ar  
    59    28    30 ar  
    60    29    33 ar  
    61    29    65 1   
    62    30    31 ar  
    63    30    66 1   
    64    31    32 ar  
    65    31    67 1   
    66    32    33 ar  
    67    32    68 1   
    68    33    34 1   
    69    34    35 1   
    70    34    69 1   
    71    35    36 2   
    72    35    37 1   
    73    37    38 1   
    74    37    70 1   
    75    37    71 1   
    76    38    72 1   
    77    38    73 1   
    78    38    74 1   
@<TRIPOS>SUBSTRUCTURE
     1 L0N         1 TEMP              0 ****  ****    0 ROOT
