@<TRIPOS>MOLECULE
L0P
   51    55     1     0     0
SMALL
No Charge or Current Charge


@<TRIPOS>ATOM
      1 C1           6.2190    -2.0640    -1.3630 c3         1 L0P      -0.037800
      2 C2           4.7760    -2.2960    -0.9930 cc         1 L0P      -0.041300
      3 C3           4.1600    -3.5280    -1.0410 cd         1 L0P      -0.106000
      4 C4           2.8120    -3.6720    -0.5460 cd         1 L0P      -0.140000
      5 C5           2.0570    -2.6000    -0.0760 cc         1 L0P      -0.103000
      6 C7           3.9810    -1.2010    -0.5340 cc         1 L0P      -0.059000
      7 C11          4.5120     2.7790     0.6880 ca         1 L0P      -0.087500
      8 C12          4.6040     4.1500     0.9840 ca         1 L0P      -0.119000
      9 C15          2.0930     2.9470     0.6490 ca         1 L0P      -0.087500
     10 C16          2.1120    -0.1760     0.2160 cc         1 L0P      -0.065500
     11 C18         -0.3890    -0.3960     0.2340 c          1 L0P       0.587100
     12 C23         -3.2430     1.3810    -1.0530 ca         1 L0P      -0.129000
     13 C24         -4.0660     2.1830    -1.8620 ca         1 L0P      -0.079000
     14 C27         -5.1880     0.1640    -0.2730 ca         1 L0P      -0.149000
     15 C30         -3.2630    -1.7910     0.9770 c          1 L0P       0.583000
     16 N6           2.6440    -1.3450    -0.2860 na         1 L0P       0.135100
     17 N8           4.3330     0.0480    -0.2950 nd         1 L0P      -0.301600
     18 C9           3.2010     0.6930     0.2020 cd         1 L0P       0.155400
     19 C10          3.2550     2.1430     0.5400 ca         1 L0P      -0.014800
     20 C13          3.4410     4.9210     1.1180 ca         1 L0P      -0.104000
     21 C14          2.1870     4.3190     0.9430 ca         1 L0P      -0.119000
     22 N17          0.8240     0.0890     0.6980 ns         1 L0P      -0.406100
     23 O19         -0.4820    -1.1050    -0.7600 o          1 L0P      -0.552100
     24 C20         -1.6100     0.0660     1.0490 c3         1 L0P       0.017000
     25 N21         -2.9180    -0.4730     0.5690 n          1 L0P      -0.206400
     26 C22         -3.7950     0.4070    -0.1850 ca         1 L0P      -0.015000
     27 C25         -5.4550     1.9930    -1.8580 ca         1 L0P      -0.122000
     28 C26         -6.0130     0.9740    -1.0740 ca         1 L0P      -0.059000
     29 S28         -5.9380    -1.1710     0.6280 ss         1 L0P      -0.130000
     30 C29         -4.5770    -2.3890     0.4830 c6         1 L0P      -0.048400
     31 H1           6.6880    -2.9780    -1.7460 hc         1 L0P       0.051367
     32 H2           6.3050    -1.2940    -2.1390 hc         1 L0P       0.051367
     33 H3           6.7960    -1.7320    -0.4910 hc         1 L0P       0.051367
     34 H4           4.7080    -4.4010    -1.3820 ha         1 L0P       0.122000
     35 H5           2.3780    -4.6670    -0.5070 ha         1 L0P       0.133000
     36 H6           1.0720    -2.6660     0.3620 h4         1 L0P       0.163000
     37 H7           5.4330     2.2090     0.5930 ha         1 L0P       0.120000
     38 H8           5.5800     4.6140     1.1070 ha         1 L0P       0.110500
     39 H9           1.1050     2.5380     0.4750 ha         1 L0P       0.120000
     40 H10         -2.1690     1.5350    -1.1100 ha         1 L0P       0.130000
     41 H11         -3.6240     2.9450    -2.5010 ha         1 L0P       0.121000
     42 H12          3.5120     5.9830     1.3440 ha         1 L0P       0.111000
     43 H13          1.2830     4.9190     1.0240 ha         1 L0P       0.110500
     44 H14          0.7350     0.7830     1.4320 hn         1 L0P       0.329500
     45 H15         -1.4480    -0.2360     2.0910 h1         1 L0P       0.079700
     46 H16         -1.6310     1.1620     1.0450 h1         1 L0P       0.079700
     47 H17         -6.0930     2.6110    -2.4850 ha         1 L0P       0.121000
     48 H18         -7.0870     0.7970    -1.1060 ha         1 L0P       0.128000
     49 H19         -4.4470    -2.6570    -0.5730 h1         1 L0P       0.107700
     50 H20         -4.8100    -3.2840     1.0730 h1         1 L0P       0.107700
     51 O31         -2.5300    -2.4570     1.7020 o          1 L0P      -0.544000
@<TRIPOS>BOND
     1     1     2 1   
     2     1    31 1   
     3     1    32 1   
     4     1    33 1   
     5     2     3 2   
     6     2     6 1   
     7     3     4 1   
     8     3    34 1   
     9     4     5 2   
    10     4    35 1   
    11     5    16 1   
    12     5    36 1   
    13     6    16 1   
    14     6    17 2   
    15     7     8 ar  
    16     7    19 ar  
    17     7    37 1   
    18     8    20 ar  
    19     8    38 1   
    20     9    19 ar  
    21     9    21 ar  
    22     9    39 1   
    23    10    16 1   
    24    10    18 2   
    25    10    22 1   
    26    11    22 1   
    27    11    23 2   
    28    11    24 1   
    29    12    13 ar  
    30    12    26 ar  
    31    12    40 1   
    32    13    27 ar  
    33    13    41 1   
    34    14    26 ar  
    35    14    28 ar  
    36    14    29 1   
    37    15    25 1   
    38    15    30 1   
    39    15    51 2   
    40    17    18 1   
    41    18    19 1   
    42    20    21 ar  
    43    20    42 1   
    44    21    43 1   
    45    22    44 1   
    46    24    25 1   
    47    24    45 1   
    48    24    46 1   
    49    25    26 1   
    50    27    28 ar  
    51    27    47 1   
    52    28    48 1   
    53    29    30 1   
    54    30    49 1   
    55    30    50 1   
@<TRIPOS>SUBSTRUCTURE
     1 L0P         1 TEMP              0 ****  ****    0 ROOT
