@<TRIPOS>MOLECULE
L0P
   51    55     1     0     0
SMALL
bcc


@<TRIPOS>ATOM
      1 C1           5.9160    -2.2380    -1.1940 c3         1 L0P      -0.037800
      2 C2           4.5340    -2.4260    -0.6600 cc         1 L0P      -0.041300
      3 C3           3.9190    -3.6420    -0.5490 cd         1 L0P      -0.124000
      4 C4           2.6050    -3.7610    -0.0280 cd         1 L0P      -0.158000
      5 C5           1.9230    -2.6620     0.3770 cc         1 L0P      -0.070300
      6 C7           3.8050    -1.2880    -0.2340 cc         1 L0P      -0.008300
      7 C11          4.2540     2.8160    -0.1540 ca         1 L0P      -0.105500
      8 C12          4.3430     4.1960    -0.0710 ca         1 L0P      -0.137000
      9 C15          2.1600     2.8800     1.0160 ca         1 L0P      -0.105500
     10 C16          2.0790    -0.1920     0.5960 cc         1 L0P      -0.065500
     11 C18         -0.3000    -0.0090     0.3490 c          1 L0P       0.654100
     12 C23         -3.2190     1.6340    -0.8320 ca         1 L0P      -0.147000
     13 C24         -4.1410     2.4730    -1.4380 ca         1 L0P      -0.097000
     14 C27         -4.9550     0.0190    -0.4420 ca         1 L0P      -0.022100
     15 C30         -2.7510    -1.7660     0.4050 c          1 L0P       0.725500
     16 N6           2.5350    -1.4480     0.2700 na         1 L0P       0.033700
     17 N8           4.1560    -0.0180    -0.2360 nd         1 L0P      -0.301600
     18 C9           3.1030     0.6740     0.2690 cd         1 L0P       0.155400
     19 C10          3.1590     2.1340     0.3860 ca         1 L0P      -0.014800
     20 C13          3.3420     4.9280     0.5550 ca         1 L0P      -0.122000
     21 C14          2.2520     4.2620     1.0970 ca         1 L0P      -0.137000
     22 N17          0.8110    -0.0150     1.1320 ns         1 L0P      -0.473100
     23 O19         -0.2630    -0.1250    -0.8560 o          1 L0P      -0.552100
     24 C20         -1.5970     0.1890     1.1140 c3         1 L0P       0.017000
     25 N21         -2.7150    -0.4000     0.4160 n          1 L0P      -0.366000
     26 C22         -3.6200     0.4130    -0.2940 ca         1 L0P       0.077600
     27 C25         -5.4720     2.0960    -1.5440 ca         1 L0P      -0.140000
     28 C26         -5.8700     0.8580    -1.0640 ca         1 L0P      -0.077000
     29 S28         -5.4490    -1.5540     0.1630 ss         1 L0P      -0.209000
     30 C29         -3.9210    -2.3980    -0.3020 c6         1 L0P      -0.096300
     31 H1           6.3550    -3.1900    -1.4860 hc         1 L0P       0.051367
     32 H2           5.9160    -1.5790    -2.0640 hc         1 L0P       0.051367
     33 H3           6.5640    -1.7770    -0.4480 hc         1 L0P       0.051367
     34 H4           4.4410    -4.5370    -0.8620 ha         1 L0P       0.140000
     35 H5           2.1350    -4.7300     0.0540 ha         1 L0P       0.151000
     36 H6           0.9220    -2.6790     0.7830 h4         1 L0P       0.181000
     37 H7           5.0380     2.2550    -0.6430 ha         1 L0P       0.138000
     38 H8           5.2000     4.7020    -0.4970 ha         1 L0P       0.128500
     39 H9           1.3040     2.3910     1.4570 ha         1 L0P       0.138000
     40 H10         -2.1830     1.9400    -0.7900 ha         1 L0P       0.148000
     41 H11         -3.8090     3.4200    -1.8390 ha         1 L0P       0.139000
     42 H12          3.4120     6.0060     0.6200 ha         1 L0P       0.129000
     43 H13          1.4660     4.8180     1.5910 ha         1 L0P       0.128500
     44 H14          0.7050     0.0130     2.1360 hn         1 L0P       0.329500
     45 H15         -1.5240    -0.2320     2.1170 h1         1 L0P       0.079700
     46 H16         -1.7740     1.2570     1.2480 h1         1 L0P       0.079700
     47 H17         -6.1930     2.7480    -2.0180 ha         1 L0P       0.139000
     48 H18         -6.8970     0.5340    -1.1740 ha         1 L0P       0.146000
     49 H19         -3.7880    -2.3540    -1.3850 h1         1 L0P       0.107700
     50 H20         -4.0000    -3.4410    -0.0040 h1         1 L0P       0.107700
     51 O31         -1.8810    -2.4220     0.9430 o          1 L0P      -0.619500
@<TRIPOS>BOND
     1     1     2 1   
     2     1    31 1   
     3     1    32 1   
     4     1    33 1   
     5     2     3 2   
     6     2     6 1   
     7     3     4 1   
     8     3    34 1   
     9     4     5 2   
    10     4    35 1   
    11     5    16 1   
    12     5    36 1   
    13     6    16 1   
    14     6    17 2   
    15     7     8 ar  
    16     7    19 ar  
    17     7    37 1   
    18     8    20 ar  
    19     8    38 1   
    20     9    19 ar  
    21     9    21 ar  
    22     9    39 1   
    23    10    16 1   
    24    10    18 2   
    25    10    22 1   
    26    11    22 1   
    27    11    23 2   
    28    11    24 1   
    29    12    13 ar  
    30    12    26 ar  
    31    12    40 1   
    32    13    27 ar  
    33    13    41 1   
    34    14    26 ar  
    35    14    28 ar  
    36    14    29 1   
    37    15    25 1   
    38    15    30 1   
    39    15    51 2   
    40    17    18 1   
    41    18    19 1   
    42    20    21 ar  
    43    20    42 1   
    44    21    43 1   
    45    22    44 1   
    46    24    25 1   
    47    24    45 1   
    48    24    46 1   
    49    25    26 1   
    50    27    28 ar  
    51    27    47 1   
    52    28    48 1   
    53    29    30 1   
    54    30    49 1   
    55    30    50 1   
@<TRIPOS>SUBSTRUCTURE
     1 L0P         1 TEMP              0 ****  ****    0 ROOT
