@<TRIPOS>MOLECULE
L0Q
   71    75     1     0     0
SMALL
No Charge or Current Charge


@<TRIPOS>ATOM
      1 C4           1.8870    -3.1060     1.2530 ca         1 L0Q       0.137500
      2 C5           2.3050    -1.8710     0.7980 ca         1 L0Q      -0.206800
      3 C6           3.6900    -1.6200     0.6710 ca         1 L0Q       0.417300
      4 N1           4.5730    -2.5680     1.0650 nb         1 L0Q      -0.311000
      5 N3           2.7580    -4.0560     1.6330 nb         1 L0Q      -0.218000
      6 CBE         -6.3380    -1.3680    -1.1620 c6         1 L0Q       0.201300
      7 CBG         -7.5930    -0.5420    -1.5960 c6         1 L0Q       0.155300
      8 NBH         -8.4280    -0.1010    -0.4370 n3         1 L0Q      -0.711600
      9 CBJ         -9.6360     0.6420    -0.8530 c3         1 L0Q       0.151100
     10 CBI         -7.5840     0.6650     0.5300 c6         1 L0Q       0.155300
     11 CBF         -6.3280    -0.1350     1.0080 c6         1 L0Q       0.201300
     12 NBD         -5.5090    -0.6600    -0.1330 nh         1 L0Q      -0.791400
     13 CAR         -4.1480    -0.9890     0.0670 ca         1 L0Q       0.314000
     14 CAS         -3.2660    -0.0290     0.5940 ca         1 L0Q      -0.171000
     15 CAT         -1.9090    -0.3330     0.8000 ca         1 L0Q      -0.059000
     16 CAQ         -3.6450    -2.2660    -0.2500 ca         1 L0Q      -0.171000
     17 CAP         -2.2890    -2.5750    -0.0450 ca         1 L0Q      -0.059000
     18 CAJ         -1.4060    -1.6060     0.4690 ca         1 L0Q      -0.086800
     19 CAH          0.0010    -1.9460     0.6890 cc         1 L0Q       0.007700
     20 NAG          0.5090    -3.1490     1.1890 na         1 L0Q      -0.309400
     21 C2           4.0650    -3.7310     1.5320 ca         1 L0Q       0.175900
     22 OAL          4.1400    -0.4290     0.1460 os         1 L0Q      -0.451300
     23 CAM          5.4970    -0.2370    -0.2940 c3         1 L0Q       0.186300
     24 CAO          5.6760    -0.9630    -1.6450 c3         1 L0Q      -0.107100
     25 CAN          5.7040     1.2840    -0.4170 c3         1 L0Q      -0.107100
     26 CAI          1.0950    -1.1130     0.4690 cd         1 L0Q      -0.029400
     27 CAK          1.0770     0.1880    -0.2390 ca         1 L0Q       0.010200
     28 CAU          1.8650     1.2660     0.2130 ca         1 L0Q      -0.109000
     29 CAY          0.2380     0.3840    -1.3560 ca         1 L0Q      -0.121000
     30 CAX          0.2170     1.6160    -2.0270 ca         1 L0Q      -0.088000
     31 CAW          1.0260     2.6720    -1.5800 ca         1 L0Q      -0.171000
     32 CAV          1.8470     2.5120    -0.4510 ca         1 L0Q      -0.025000
     33 NAZ          2.6390     3.6220    -0.0490 ns         1 L0Q      -0.152000
     34 CBA          3.3720     3.8730     1.1040 c          1 L0Q       0.602100
     35 OBK          3.3900     3.1400     2.0860 o          1 L0Q      -0.575100
     36 CBB          4.1440     5.2000     1.0830 c3         1 L0Q      -0.161400
     37 CBC          5.6620     4.9730     0.9060 c3         1 L0Q      -0.076100
     38 H1          -6.6760    -2.3360    -0.7650 h1         1 L0Q       0.046200
     39 H2          -5.7360    -1.5730    -2.0600 h1         1 L0Q       0.046200
     40 H3          -7.2510     0.3340    -2.1660 h1         1 L0Q       0.040450
     41 H4          -8.1920    -1.1560    -2.2850 h1         1 L0Q       0.040450
     42 H6         -10.2550     0.0320    -1.5250 h1         1 L0Q       0.032700
     43 H7         -10.2470     0.9090     0.0190 h1         1 L0Q       0.032700
     44 H8          -9.3670     1.5680    -1.3800 h1         1 L0Q       0.032700
     45 H9          -7.2410     1.6030     0.0680 h1         1 L0Q       0.040450
     46 H10         -8.1760     0.9440     1.4140 h1         1 L0Q       0.040450
     47 H11         -5.7270     0.5220     1.6520 h1         1 L0Q       0.046200
     48 H12         -6.6650    -0.9750     1.6330 h1         1 L0Q       0.046200
     49 H13         -3.6300     0.9650     0.8390 ha         1 L0Q       0.115500
     50 H14         -1.2510     0.4240     1.2200 ha         1 L0Q       0.117500
     51 H15         -4.3030    -3.0340    -0.6460 ha         1 L0Q       0.115500
     52 H16         -1.9220    -3.5670    -0.2970 ha         1 L0Q       0.117500
     53 H17         -0.0510    -3.9460     1.4680 hn         1 L0Q       0.364000
     54 H18          4.7820    -4.4880     1.8430 h5         1 L0Q       0.045100
     55 H19          6.2170    -0.6260     0.4390 h1         1 L0Q       0.068700
     56 H20          4.9370    -0.6120    -2.3760 hc         1 L0Q       0.047367
     57 H21          6.6760    -0.7730    -2.0510 hc         1 L0Q       0.047367
     58 H22          5.5610    -2.0460    -1.5290 hc         1 L0Q       0.047367
     59 H23          5.5770     1.7650     0.5600 hc         1 L0Q       0.047367
     60 H24          6.7150     1.5070    -0.7760 hc         1 L0Q       0.047367
     61 H25          4.9830     1.7230    -1.1170 hc         1 L0Q       0.047367
     62 H26          2.4760     1.1200     1.0960 ha         1 L0Q       0.153000
     63 H27         -0.3790    -0.4300    -1.7260 ha         1 L0Q       0.122000
     64 H28         -0.4220     1.7500    -2.8970 ha         1 L0Q       0.112000
     65 H29          1.0050     3.6220    -2.1100 ha         1 L0Q       0.105000
     66 H30          2.6940     4.3560    -0.7430 hn         1 L0Q       0.145000
     67 H31          3.7950     5.8280     0.2550 hc         1 L0Q       0.056200
     68 H32          3.9840     5.7180     2.0360 hc         1 L0Q       0.056200
     69 H33          5.8710     4.4640    -0.0430 hc         1 L0Q       0.044033
     70 H34          6.1960     5.9310     0.9050 hc         1 L0Q       0.044033
     71 H35          6.0630     4.3590     1.7220 hc         1 L0Q       0.044033
@<TRIPOS>BOND
     1     1     2 ar  
     2     1     5 ar  
     3     1    20 1   
     4     2     3 ar  
     5     2    26 1   
     6     3     4 ar  
     7     3    22 1   
     8     4    21 ar  
     9     5    21 ar  
    10     6     7 1   
    11     6    12 1   
    12     6    38 1   
    13     6    39 1   
    14     7     8 1   
    15     7    40 1   
    16     7    41 1   
    17     8     9 1   
    18     8    10 1   
    19     9    42 1   
    20     9    43 1   
    21     9    44 1   
    22    10    11 1   
    23    10    45 1   
    24    10    46 1   
    25    11    12 1   
    26    11    47 1   
    27    11    48 1   
    28    12    13 1   
    29    13    14 ar  
    30    13    16 ar  
    31    14    15 ar  
    32    14    49 1   
    33    15    18 ar  
    34    15    50 1   
    35    16    17 ar  
    36    16    51 1   
    37    17    18 ar  
    38    17    52 1   
    39    18    19 1   
    40    19    20 1   
    41    19    26 2   
    42    20    53 1   
    43    21    54 1   
    44    22    23 1   
    45    23    24 1   
    46    23    25 1   
    47    23    55 1   
    48    24    56 1   
    49    24    57 1   
    50    24    58 1   
    51    25    59 1   
    52    25    60 1   
    53    25    61 1   
    54    26    27 1   
    55    27    28 ar  
    56    27    29 ar  
    57    28    32 ar  
    58    28    62 1   
    59    29    30 ar  
    60    29    63 1   
    61    30    31 ar  
    62    30    64 1   
    63    31    32 ar  
    64    31    65 1   
    65    32    33 1   
    66    33    34 1   
    67    33    66 1   
    68    34    35 2   
    69    34    36 1   
    70    36    37 1   
    71    36    67 1   
    72    36    68 1   
    73    37    69 1   
    74    37    70 1   
    75    37    71 1   
@<TRIPOS>SUBSTRUCTURE
     1 L0Q         1 TEMP              0 ****  ****    0 ROOT
