@<TRIPOS>MOLECULE
L0Q
   71    75     1     0     0
SMALL
abcg2


@<TRIPOS>ATOM
      1 C4           1.7530    -3.0420     0.8540 ca         1 L0Q       0.137500
      2 C5           2.2590    -1.8570     0.3040 ca         1 L0Q      -0.206800
      3 C6           3.6600    -1.7950     0.2500 ca         1 L0Q       0.417300
      4 N1           4.3930    -2.7830     0.7270 nb         1 L0Q      -0.311000
      5 N3           2.4770    -4.0520     1.3360 nb         1 L0Q      -0.218000
      6 CBE         -6.4460    -1.5320    -0.4820 c6         1 L0Q       0.201300
      7 CBG         -7.7790    -0.9500    -0.9120 c6         1 L0Q       0.155300
      8 NBH         -8.3270    -0.0830     0.1080 n3         1 L0Q      -0.711600
      9 CBJ         -9.6340     0.4100    -0.2590 c3         1 L0Q       0.151100
     10 CBI         -7.4010     0.9970     0.3700 c6         1 L0Q       0.155300
     11 CBF         -6.0620     0.4590     0.8320 c6         1 L0Q       0.201300
     12 NBD         -5.5100    -0.4800    -0.1360 nh         1 L0Q      -0.791400
     13 CAR         -4.1670    -0.8100    -0.0280 ca         1 L0Q       0.314000
     14 CAS         -3.2010     0.1780     0.2330 ca         1 L0Q      -0.171000
     15 CAT         -1.8600    -0.1300     0.3180 ca         1 L0Q      -0.059000
     16 CAQ         -3.7020    -2.1220    -0.1970 ca         1 L0Q      -0.171000
     17 CAP         -2.3510    -2.4200    -0.1210 ca         1 L0Q      -0.059000
     18 CAJ         -1.3990    -1.4380     0.1400 ca         1 L0Q      -0.086800
     19 CAH          0.0180    -1.7690     0.2550 cc         1 L0Q       0.007700
     20 NAG          0.4050    -2.9710     0.8070 na         1 L0Q      -0.309400
     21 C2           3.7730    -3.8470     1.2450 ca         1 L0Q       0.175900
     22 OAL          4.2200    -0.7260    -0.2810 os         1 L0Q      -0.451300
     23 CAM          5.6540    -0.5790    -0.3020 c3         1 L0Q       0.186300
     24 CAO          6.2380    -1.3150    -1.4930 c3         1 L0Q      -0.107100
     25 CAN          5.9160     0.9130    -0.3570 c3         1 L0Q      -0.107100
     26 CAI          1.1430    -1.0490    -0.0850 cd         1 L0Q      -0.029400
     27 CAK          1.1820     0.2570    -0.7580 ca         1 L0Q       0.010200
     28 CAU          1.8930     1.3100    -0.1820 ca         1 L0Q      -0.109000
     29 CAY          0.5190     0.4460    -1.9680 ca         1 L0Q      -0.121000
     30 CAX          0.5700     1.6830    -2.5920 ca         1 L0Q      -0.088000
     31 CAW          1.2780     2.7290    -2.0260 ca         1 L0Q      -0.171000
     32 CAV          1.9510     2.5500    -0.8140 ca         1 L0Q      -0.025000
     33 NAZ          2.6560     3.6510    -0.3190 ns         1 L0Q      -0.152000
     34 CBA          3.3110     3.8050     0.8640 c          1 L0Q       0.602100
     35 OBK          3.3670     2.9480     1.7270 o          1 L0Q      -0.575100
     36 CBB          3.9720     5.1610     1.0080 c3         1 L0Q      -0.161400
     37 CBC          4.6880     5.3470     2.3330 c3         1 L0Q      -0.076100
     38 H1          -6.5990    -2.2290     0.3540 h1         1 L0Q       0.046200
     39 H2          -6.0510    -2.1080    -1.3200 h1         1 L0Q       0.046200
     40 H3          -7.6480    -0.4170    -1.8710 h1         1 L0Q       0.040450
     41 H4          -8.4700    -1.7750    -1.0960 h1         1 L0Q       0.040450
     42 H6         -10.3190    -0.4250    -0.4130 h1         1 L0Q       0.032700
     43 H7         -10.0380     1.0310     0.5420 h1         1 L0Q       0.032700
     44 H8          -9.6270     1.0130    -1.1800 h1         1 L0Q       0.032700
     45 H9          -7.2530     1.6340    -0.5200 h1         1 L0Q       0.040450
     46 H10         -7.8060     1.6360     1.1580 h1         1 L0Q       0.040450
     47 H11         -5.3880     1.3010     0.9680 h1         1 L0Q       0.046200
     48 H12         -6.1810    -0.0270     1.8110 h1         1 L0Q       0.046200
     49 H13         -3.4950     1.2100     0.3670 ha         1 L0Q       0.115500
     50 H14         -1.1570     0.6650     0.5300 ha         1 L0Q       0.117500
     51 H15         -4.3880    -2.9370    -0.3790 ha         1 L0Q       0.115500
     52 H16         -2.0460    -3.4490    -0.2730 ha         1 L0Q       0.117500
     53 H17         -0.2190    -3.6550     1.2050 hn         1 L0Q       0.364000
     54 H18          4.4180    -4.6300     1.6280 h5         1 L0Q       0.045100
     55 H19          6.0650    -0.9890     0.6220 h1         1 L0Q       0.068700
     56 H20          5.8270    -0.9330    -2.4280 hc         1 L0Q       0.047367
     57 H21          7.3190    -1.1720    -1.5170 hc         1 L0Q       0.047367
     58 H22          6.0460    -2.3860    -1.4390 hc         1 L0Q       0.047367
     59 H23          5.4830     1.4240     0.5020 hc         1 L0Q       0.047367
     60 H24          6.9910     1.0930    -0.3500 hc         1 L0Q       0.047367
     61 H25          5.5050     1.3560    -1.2660 hc         1 L0Q       0.047367
     62 H26          2.3960     1.1510     0.7560 ha         1 L0Q       0.153000
     63 H27         -0.0250    -0.3710    -2.4220 ha         1 L0Q       0.122000
     64 H28          0.0600     1.8370    -3.5340 ha         1 L0Q       0.112000
     65 H29          1.3110     3.6900    -2.5260 ha         1 L0Q       0.105000
     66 H30          2.6640     4.4550    -0.9290 hn         1 L0Q       0.145000
     67 H31          4.6710     5.2930     0.1760 hc         1 L0Q       0.056200
     68 H32          3.2080     5.9330     0.8760 hc         1 L0Q       0.056200
     69 H33          5.4780     4.6090     2.4710 hc         1 L0Q       0.044033
     70 H34          5.1470     6.3350     2.3680 hc         1 L0Q       0.044033
     71 H35          4.0040     5.2690     3.1760 hc         1 L0Q       0.044033
@<TRIPOS>BOND
     1     1     2 ar  
     2     1     5 ar  
     3     1    20 1   
     4     2     3 ar  
     5     2    26 1   
     6     3     4 ar  
     7     3    22 1   
     8     4    21 ar  
     9     5    21 ar  
    10     6     7 1   
    11     6    12 1   
    12     6    38 1   
    13     6    39 1   
    14     7     8 1   
    15     7    40 1   
    16     7    41 1   
    17     8     9 1   
    18     8    10 1   
    19     9    42 1   
    20     9    43 1   
    21     9    44 1   
    22    10    11 1   
    23    10    45 1   
    24    10    46 1   
    25    11    12 1   
    26    11    47 1   
    27    11    48 1   
    28    12    13 1   
    29    13    14 ar  
    30    13    16 ar  
    31    14    15 ar  
    32    14    49 1   
    33    15    18 ar  
    34    15    50 1   
    35    16    17 ar  
    36    16    51 1   
    37    17    18 ar  
    38    17    52 1   
    39    18    19 1   
    40    19    20 1   
    41    19    26 2   
    42    20    53 1   
    43    21    54 1   
    44    22    23 1   
    45    23    24 1   
    46    23    25 1   
    47    23    55 1   
    48    24    56 1   
    49    24    57 1   
    50    24    58 1   
    51    25    59 1   
    52    25    60 1   
    53    25    61 1   
    54    26    27 1   
    55    27    28 ar  
    56    27    29 ar  
    57    28    32 ar  
    58    28    62 1   
    59    29    30 ar  
    60    29    63 1   
    61    30    31 ar  
    62    30    64 1   
    63    31    32 ar  
    64    31    65 1   
    65    32    33 1   
    66    33    34 1   
    67    33    66 1   
    68    34    35 2   
    69    34    36 1   
    70    36    37 1   
    71    36    67 1   
    72    36    68 1   
    73    37    69 1   
    74    37    70 1   
    75    37    71 1   
@<TRIPOS>SUBSTRUCTURE
     1 L0Q         1 TEMP              0 ****  ****    0 ROOT
