@<TRIPOS>MOLECULE
L0R
   54    57     1     0     0
SMALL
abcg2


@<TRIPOS>ATOM
      1 C01         -0.8980    -3.9210    -0.1650 c6         1 L0R      -0.106400
      2 C02         -0.5340    -2.6210    -0.8720 c6         1 L0R       0.090000
      3 N03         -0.1980    -1.6000     0.1150 n          1 L0R      -0.403800
      4 C04          0.9590    -1.9790     0.9200 c6         1 L0R       0.024700
      5 C05          0.6250    -3.2170     1.7430 c6         1 L0R      -0.088400
      6 C06          0.2020    -4.3470     0.8030 c6         1 L0R      -0.079400
      7 C07          1.5670    -0.8390     1.7410 c          1 L0R       0.635100
      8 O08          1.7180    -0.9650     2.9460 o          1 L0R      -0.589100
      9 N09          2.0180     0.2400     1.0660 n          1 L0R      -0.401800
     10 C10          4.7680     1.3430    -2.7800 ca         1 L0R      -0.111000
     11 C11         -1.1030    -0.7200     0.6000 c          1 L0R       0.589100
     12 O12         -0.9320    -0.0940     1.6300 o          1 L0R      -0.539100
     13 C13         -2.3560    -0.5140    -0.2420 c3         1 L0R       0.082600
     14 O14         -3.0590     0.5560     0.3230 os         1 L0R      -0.312100
     15 C15         -4.2200     0.9370    -0.2530 ca         1 L0R       0.137100
     16 C16         -4.8680     2.0180     0.3490 ca         1 L0R      -0.169000
     17 C17         -6.6330     1.8870    -1.2880 ca         1 L0R      -0.145000
     18 C18         -5.9860     0.8150    -1.8810 ca         1 L0R      -0.074500
     19 C19         -6.0640     2.4840    -0.1680 ca         1 L0R      -0.074500
     20 C20         -4.7820     0.3330    -1.3740 ca         1 L0R      -0.169000
     21 C21          3.5690     0.8920    -2.2540 ca         1 L0R      -0.108000
     22 C22          5.5160     1.8720    -0.5620 ca         1 L0R      -0.108000
     23 C23          5.7490     1.8350    -1.9270 ca         1 L0R      -0.106000
     24 C24          4.3120     1.4210    -0.0220 ca         1 L0R      -0.060300
     25 C25          3.3330     0.9220    -0.8810 ca         1 L0R      -0.103300
     26 C26          2.0020     0.4230    -0.3670 c6         1 L0R       0.153300
     27 C27          2.5880     1.3700     1.7750 c6         1 L0R       0.098000
     28 C28          4.0700     1.4710     1.4630 c6         1 L0R      -0.054100
     29 H1          -1.8390    -3.7810     0.3750 hc         1 L0R       0.050200
     30 H2          -1.0720    -4.7000    -0.9100 hc         1 L0R       0.050200
     31 H3           0.3370    -2.7620    -1.5180 h1         1 L0R       0.052700
     32 H4          -1.3390    -2.2850    -1.5210 h1         1 L0R       0.052700
     33 H5           1.7330    -2.2750     0.1980 h1         1 L0R       0.062700
     34 H6           1.4950    -3.5270     2.3210 hc         1 L0R       0.070200
     35 H7          -0.1730    -2.9870     2.4540 hc         1 L0R       0.070200
     36 H8          -0.1300    -5.2090     1.3860 hc         1 L0R       0.044700
     37 H9           1.0760    -4.6800     0.2340 hc         1 L0R       0.044700
     38 H10          4.9380     1.3090    -3.8490 ha         1 L0R       0.113000
     39 H11         -2.0790    -0.3060    -1.2830 h1         1 L0R       0.049200
     40 H12         -2.9570    -1.4320    -0.2380 h1         1 L0R       0.049200
     41 H13         -4.4260     2.4840     1.2200 ha         1 L0R       0.122000
     42 H14         -7.5680     2.2530    -1.6900 ha         1 L0R       0.115000
     43 H15         -6.4140     0.3370    -2.7520 ha         1 L0R       0.113000
     44 H16         -6.5560     3.3220     0.3100 ha         1 L0R       0.113000
     45 H17         -4.3070    -0.5040    -1.8680 ha         1 L0R       0.122000
     46 H18          2.8030     0.5040    -2.9160 ha         1 L0R       0.107000
     47 H19          6.2800     2.2620     0.1010 ha         1 L0R       0.112000
     48 H20          6.6890     2.1930    -2.3260 ha         1 L0R       0.113000
     49 H21          1.7600    -0.5050    -0.8770 h1         1 L0R       0.056200
     50 H22          1.2160     1.1380    -0.6400 h1         1 L0R       0.056200
     51 H23          2.0720     2.2780     1.4460 h1         1 L0R       0.066700
     52 H24          2.4160     1.2610     2.8410 h1         1 L0R       0.066700
     53 H25          4.6040     0.6530     1.9560 hc         1 L0R       0.059700
     54 H26          4.4720     2.3980     1.8780 hc         1 L0R       0.059700
@<TRIPOS>BOND
     1     1     2 1   
     2     1     6 1   
     3     1    29 1   
     4     1    30 1   
     5     2     3 1   
     6     2    31 1   
     7     2    32 1   
     8     3     4 1   
     9     3    11 1   
    10     4     5 1   
    11     4     7 1   
    12     4    33 1   
    13     5     6 1   
    14     5    34 1   
    15     5    35 1   
    16     6    36 1   
    17     6    37 1   
    18     7     8 2   
    19     7     9 1   
    20     9    26 1   
    21     9    27 1   
    22    10    21 ar  
    23    10    23 ar  
    24    10    38 1   
    25    11    12 2   
    26    11    13 1   
    27    13    14 1   
    28    13    39 1   
    29    13    40 1   
    30    14    15 1   
    31    15    16 ar  
    32    15    20 ar  
    33    16    19 ar  
    34    16    41 1   
    35    17    18 ar  
    36    17    19 ar  
    37    17    42 1   
    38    18    20 ar  
    39    18    43 1   
    40    19    44 1   
    41    20    45 1   
    42    21    25 ar  
    43    21    46 1   
    44    22    23 ar  
    45    22    24 ar  
    46    22    47 1   
    47    23    48 1   
    48    24    25 ar  
    49    24    28 1   
    50    25    26 1   
    51    26    49 1   
    52    26    50 1   
    53    27    28 1   
    54    27    51 1   
    55    27    52 1   
    56    28    53 1   
    57    28    54 1   
@<TRIPOS>SUBSTRUCTURE
     1 L0R         1 TEMP              0 ****  ****    0 ROOT
