@<TRIPOS>MOLECULE
L0R
   54    57     1     0     0
SMALL
No Charge or Current Charge


@<TRIPOS>ATOM
      1 C01         -0.9230    -4.2760     0.0790 c6         1 L0R      -0.106400
      2 C02         -0.6180    -2.9560    -0.6690 c6         1 L0R       0.090000
      3 N03         -0.2210    -1.9050     0.3060 n          1 L0R      -0.403800
      4 C04          1.0330    -2.2790     1.0500 c6         1 L0R       0.024700
      5 C05          0.7630    -3.5690     1.8780 c6         1 L0R      -0.088400
      6 C06          0.2790    -4.7180     0.9540 c6         1 L0R      -0.079400
      7 C07          1.7890    -1.1420     1.8250 c          1 L0R       0.635100
      8 O08          2.1130    -1.2950     2.9990 o          1 L0R      -0.589100
      9 N09          2.0450     0.0900     1.1700 n          1 L0R      -0.401800
     10 C10          4.3390     1.7710    -2.9150 ca         1 L0R      -0.111000
     11 C11         -1.1340    -0.9170     0.7700 c          1 L0R       0.589100
     12 O12         -0.9580    -0.3570     1.8460 o          1 L0R      -0.539100
     13 C13         -2.3170    -0.5310    -0.1550 c3         1 L0R       0.082600
     14 O14         -3.0360     0.6290     0.3240 os         1 L0R      -0.312100
     15 C15         -4.1230     1.1500    -0.3470 ca         1 L0R       0.137100
     16 C16         -4.7520     2.2810     0.1990 ca         1 L0R      -0.169000
     17 C17         -6.3510     2.2980    -1.6340 ca         1 L0R      -0.145000
     18 C18         -5.7270     1.1660    -2.1880 ca         1 L0R      -0.074500
     19 C19         -5.8640     2.8560    -0.4410 ca         1 L0R      -0.074500
     20 C20         -4.6150     0.5900    -1.5480 ca         1 L0R      -0.169000
     21 C21          3.2530     1.1060    -2.3220 ca         1 L0R      -0.108000
     22 C22          5.2350     2.2720    -0.7110 ca         1 L0R      -0.108000
     23 C23          5.3310     2.3540    -2.1100 ca         1 L0R      -0.106000
     24 C24          4.1470     1.6110    -0.1100 ca         1 L0R      -0.060300
     25 C25          3.1500     1.0190    -0.9200 ca         1 L0R      -0.103300
     26 C26          1.9530     0.2770    -0.3040 c6         1 L0R       0.153300
     27 C27          2.6140     1.2590     1.8810 c6         1 L0R       0.098000
     28 C28          4.0560     1.5270     1.4130 c6         1 L0R      -0.054100
     29 H1          -1.8100    -4.1390     0.7130 hc         1 L0R       0.050200
     30 H2          -1.1730    -5.0660    -0.6430 hc         1 L0R       0.050200
     31 H3           0.2100    -3.1200    -1.3750 h1         1 L0R       0.052700
     32 H4          -1.4880    -2.6590    -1.2680 h1         1 L0R       0.052700
     33 H5           1.7710    -2.5660     0.2890 h1         1 L0R       0.062700
     34 H6           1.6760    -3.8850     2.4010 hc         1 L0R       0.070200
     35 H7           0.0110    -3.3630     2.6520 hc         1 L0R       0.070200
     36 H8           0.0030    -5.5940     1.5560 hc         1 L0R       0.044700
     37 H9           1.1060    -5.0370     0.3030 hc         1 L0R       0.044700
     38 H10          4.4120     1.8340    -3.9990 ha         1 L0R       0.113000
     39 H11         -1.9060    -0.3410    -1.1540 h1         1 L0R       0.049200
     40 H12         -2.9880    -1.3970    -0.2130 h1         1 L0R       0.049200
     41 H13         -4.3750     2.7130     1.1230 ha         1 L0R       0.122000
     42 H14         -7.2110     2.7420    -2.1310 ha         1 L0R       0.115000
     43 H15         -6.1060     0.7360    -3.1130 ha         1 L0R       0.113000
     44 H16         -6.3470     3.7320    -0.0120 ha         1 L0R       0.113000
     45 H17         -4.1520    -0.2830    -1.9970 ha         1 L0R       0.122000
     46 H18          2.4910     0.6550    -2.9540 ha         1 L0R       0.107000
     47 H19          6.0080     2.7250    -0.0930 ha         1 L0R       0.112000
     48 H20          6.1730     2.8670    -2.5690 ha         1 L0R       0.113000
     49 H21          1.8720    -0.6920    -0.8130 h1         1 L0R       0.056200
     50 H22          1.0340     0.8370    -0.5300 h1         1 L0R       0.056200
     51 H23          1.9930     2.1400     1.6660 h1         1 L0R       0.066700
     52 H24          2.5970     1.1120     2.9700 h1         1 L0R       0.066700
     53 H25          4.7120     0.7220     1.7710 hc         1 L0R       0.059700
     54 H26          4.4210     2.4570     1.8700 hc         1 L0R       0.059700
@<TRIPOS>BOND
     1     1     2 1   
     2     1     6 1   
     3     1    29 1   
     4     1    30 1   
     5     2     3 1   
     6     2    31 1   
     7     2    32 1   
     8     3     4 1   
     9     3    11 1   
    10     4     5 1   
    11     4     7 1   
    12     4    33 1   
    13     5     6 1   
    14     5    34 1   
    15     5    35 1   
    16     6    36 1   
    17     6    37 1   
    18     7     8 2   
    19     7     9 1   
    20     9    26 1   
    21     9    27 1   
    22    10    21 ar  
    23    10    23 ar  
    24    10    38 1   
    25    11    12 2   
    26    11    13 1   
    27    13    14 1   
    28    13    39 1   
    29    13    40 1   
    30    14    15 1   
    31    15    16 ar  
    32    15    20 ar  
    33    16    19 ar  
    34    16    41 1   
    35    17    18 ar  
    36    17    19 ar  
    37    17    42 1   
    38    18    20 ar  
    39    18    43 1   
    40    19    44 1   
    41    20    45 1   
    42    21    25 ar  
    43    21    46 1   
    44    22    23 ar  
    45    22    24 ar  
    46    22    47 1   
    47    23    48 1   
    48    24    25 ar  
    49    24    28 1   
    50    25    26 1   
    51    26    49 1   
    52    26    50 1   
    53    27    28 1   
    54    27    51 1   
    55    27    52 1   
    56    28    53 1   
    57    28    54 1   
@<TRIPOS>SUBSTRUCTURE
     1 L0R         1 TEMP              0 ****  ****    0 ROOT
