@<TRIPOS>MOLECULE
L0S
   32    31     1     0     0
SMALL
abcg2


@<TRIPOS>ATOM
      1 C13         -0.1720    65.5400   345.7540 c3         1 L0S       0.194900
      2 C01         -6.4270    68.9980   347.0200 c3         1 L0S      -0.111100
      3 C02         -5.9240    68.3390   348.2950 c3         1 L0S       0.223300
      4 C04         -6.1880    65.9060   347.9690 c3         1 L0S       0.223300
      5 C05         -6.4020    65.2360   349.3160 c3         1 L0S      -0.111100
      6 C06         -3.9670    66.8790   347.9370 c2         1 L0S       0.802200
      7 C07         -3.1070    68.1140   348.0180 c3         1 L0S      -0.207400
      8 N03         -5.2900    67.0510   348.0510 nh         1 L0S      -0.745600
      9 N08         -3.5150    65.6710   347.7780 ne         1 L0S      -1.065900
     10 O11         -0.9800    65.6630   348.7160 o          1 L0S      -0.596000
     11 O12         -1.5210    65.7010   346.1740 os         1 L0S      -0.605400
     12 P09         -1.9500    65.2100   347.6710 py         1 L0S       1.461600
     13 H1          -0.0960    65.9330   344.7430 h1         1 L0S       0.034367
     14 H2           0.5200    66.0870   346.3950 h1         1 L0S       0.034367
     15 H3           0.1270    64.4890   345.7350 h1         1 L0S       0.034367
     16 H4          -6.9380    69.9310   347.2550 hc         1 L0S       0.042867
     17 H5          -5.6060    69.2260   346.3390 hc         1 L0S       0.042867
     18 H6          -7.1320    68.3540   346.4940 hc         1 L0S       0.042867
     19 H7          -5.2400    69.0000   348.8230 h1         1 L0S       0.054700
     20 H8          -6.7560    68.1670   348.9800 h1         1 L0S       0.054700
     21 H9          -7.1380    66.2630   347.5680 h1         1 L0S       0.054700
     22 H10         -5.7840    65.1930   347.2540 h1         1 L0S       0.054700
     23 H11         -7.0970    64.4030   349.2120 hc         1 L0S       0.042867
     24 H12         -5.4630    64.8470   349.7090 hc         1 L0S       0.042867
     25 H13         -6.8220    65.9290   350.0460 hc         1 L0S       0.042867
     26 H14         -3.5080    68.9300   347.4190 hc         1 L0S       0.068700
     27 H15         -3.0420    68.4620   349.0500 hc         1 L0S       0.068700
     28 H16         -2.0960    67.9200   347.6750 hc         1 L0S       0.068700
     29 C14         -2.0430    63.4140   347.5500 c3         1 L0S      -0.472100
     30 H17         -2.4020    63.0040   348.4940 hc         1 L0S       0.074700
     31 H18         -2.7260    63.1070   346.7600 hc         1 L0S       0.074700
     32 H19         -1.0600    62.9860   347.3520 hc         1 L0S       0.074700
@<TRIPOS>BOND
     1     1    11 1   
     2     1    13 1   
     3     1    14 1   
     4     1    15 1   
     5     2     3 1   
     6     2    16 1   
     7     2    17 1   
     8     2    18 1   
     9     3     8 1   
    10     3    19 1   
    11     3    20 1   
    12     4     5 1   
    13     4     8 1   
    14     4    21 1   
    15     4    22 1   
    16     5    23 1   
    17     5    24 1   
    18     5    25 1   
    19     6     7 1   
    20     6     8 1   
    21     6     9 2   
    22     7    26 1   
    23     7    27 1   
    24     7    28 1   
    25     9    12 1   
    26    10    12 2   
    27    11    12 1   
    28    12    29 1   
    29    29    30 1   
    30    29    31 1   
    31    29    32 1   
@<TRIPOS>SUBSTRUCTURE
     1 L0S         1 TEMP              0 ****  ****    0 ROOT
