@<TRIPOS>MOLECULE
L0S
   32    31     1     0     0
SMALL
No Charge or Current Charge


@<TRIPOS>ATOM
      1 C13         -0.2490    65.8980   345.9340 c3         1 L0S       0.194900
      2 C01         -5.9840    68.8900   346.5940 c3         1 L0S      -0.111100
      3 C02         -6.0340    68.3020   348.0160 c3         1 L0S       0.223300
      4 C04         -6.3350    65.8330   348.3060 c3         1 L0S       0.223300
      5 C05         -6.3780    65.2970   349.7490 c3         1 L0S      -0.111100
      6 C06         -4.0110    66.7630   348.0550 c2         1 L0S       0.802200
      7 C07         -3.0700    67.9650   348.0920 c3         1 L0S      -0.207400
      8 N03         -5.3900    66.9680   348.1310 nh         1 L0S      -0.745600
      9 N08         -3.6080    65.5610   347.8450 ne         1 L0S      -1.065900
     10 O11         -1.2070    65.3890   348.8160 o          1 L0S      -0.596000
     11 O12         -1.6370    65.8480   346.2850 os         1 L0S      -0.605400
     12 P09         -2.0970    65.1390   347.6550 py         1 L0S       1.461600
     13 H1          -0.1170    66.4100   344.9730 h1         1 L0S       0.034367
     14 H2           0.3280    66.4440   346.6920 h1         1 L0S       0.034367
     15 H3           0.1690    64.8870   345.8410 h1         1 L0S       0.034367
     16 H4          -6.5120    69.8500   346.5640 hc         1 L0S       0.042867
     17 H5          -4.9520    69.0590   346.2670 hc         1 L0S       0.042867
     18 H6          -6.4660    68.2110   345.8820 hc         1 L0S       0.042867
     19 H7          -5.5980    69.0130   348.7300 h1         1 L0S       0.054700
     20 H8          -7.0940    68.2320   348.2980 h1         1 L0S       0.054700
     21 H9          -7.3550    66.1400   348.0380 h1         1 L0S       0.054700
     22 H10         -6.0840    65.0110   347.6200 h1         1 L0S       0.054700
     23 H11         -7.1040    64.4800   349.8280 hc         1 L0S       0.042867
     24 H12         -5.3970    64.9160   350.0540 hc         1 L0S       0.042867
     25 H13         -6.6750    66.0910   350.4440 hc         1 L0S       0.042867
     26 H14         -3.5220    68.8570   348.5300 hc         1 L0S       0.068700
     27 H15         -2.1850    67.7770   348.7050 hc         1 L0S       0.068700
     28 H16         -2.7380    68.2280   347.0820 hc         1 L0S       0.068700
     29 C14         -2.1080    63.3860   347.1990 c3         1 L0S      -0.472100
     30 H17         -2.5850    62.8120   347.9990 hc         1 L0S       0.074700
     31 H18         -2.6700    63.2600   346.2690 hc         1 L0S       0.074700
     32 H19         -1.0790    63.0390   347.0600 hc         1 L0S       0.074700
@<TRIPOS>BOND
     1     1    11 1   
     2     1    13 1   
     3     1    14 1   
     4     1    15 1   
     5     2     3 1   
     6     2    16 1   
     7     2    17 1   
     8     2    18 1   
     9     3     8 1   
    10     3    19 1   
    11     3    20 1   
    12     4     5 1   
    13     4     8 1   
    14     4    21 1   
    15     4    22 1   
    16     5    23 1   
    17     5    24 1   
    18     5    25 1   
    19     6     7 1   
    20     6     8 1   
    21     6     9 2   
    22     7    26 1   
    23     7    27 1   
    24     7    28 1   
    25     9    12 1   
    26    10    12 2   
    27    11    12 1   
    28    12    29 1   
    29    29    30 1   
    30    29    31 1   
    31    29    32 1   
@<TRIPOS>SUBSTRUCTURE
     1 L0S         1 TEMP              0 ****  ****    0 ROOT
