@<TRIPOS>MOLECULE
L0Y
   64    67     1     0     0
SMALL
No Charge or Current Charge


@<TRIPOS>ATOM
      1 C1           3.1500    -5.2780    -0.8290 ca         1 L0Y      -0.128000
      2 C2           1.8100    -5.6770    -0.7990 ca         1 L0Y      -0.110000
      3 C3           3.5320    -4.0660    -0.2360 ca         1 L0Y      -0.072000
      4 C4           0.8570    -4.8680    -0.1660 ca         1 L0Y      -0.122000
      5 C5          -3.7180    -0.7310    -0.1090 ca         1 L0Y      -0.121000
      6 C6          -4.6280     0.0930    -0.7880 ca         1 L0Y      -0.145000
      7 C7           2.5820    -3.2210     0.3880 ca         1 L0Y      -0.109600
      8 C8          -2.3080     1.2010     0.3960 ca         1 L0Y      -0.085600
      9 C9           1.2200    -3.6410     0.4340 ca         1 L0Y      -0.046300
     10 C10         -2.5550    -0.1950     0.4850 ca         1 L0Y      -0.091300
     11 C11         -4.3940     1.4700    -0.8710 ca         1 L0Y       0.041100
     12 C12         -3.2260     2.0280    -0.2910 ca         1 L0Y       0.061100
     13 C13          3.0970    -1.9230     0.9770 c          1 L0Y       0.594700
     14 C15          5.0960     3.3380    -0.8580 c6         1 L0Y      -0.071400
     15 C16          3.8220     3.8630    -0.1550 c6         1 L0Y      -0.071900
     16 C17          4.8640     1.9260    -1.4440 c6         1 L0Y      -0.071900
     17 C18          3.3380     2.8760     0.9360 c6         1 L0Y      -0.065900
     18 C19          4.3770     0.9350    -0.3570 c6         1 L0Y      -0.065900
     19 C20         -5.2320     3.6930    -1.3060 c6         1 L0Y       0.119600
     20 C21         -3.7560     4.1390    -1.3490 c6         1 L0Y       0.118600
     21 C22          3.0940     1.4520     0.3590 c6         1 L0Y      -0.084700
     22 C23         -0.9090    -2.1320    -0.9490 c3         1 L0Y       0.148100
     23 C24          0.1170    -2.8770     1.1780 c3         1 L0Y       0.192100
     24 C25         -1.6130    -1.1530     1.2280 c3         1 L0Y       0.222100
     25 C26          2.5770     0.4930     1.4750 c3         1 L0Y       0.105000
     26 N27          2.2360    -0.8510     0.9980 ns         1 L0Y      -0.473900
     27 N28         -0.5020    -1.7490     0.4280 n3         1 L0Y      -0.691600
     28 O29         -1.0480     1.9190     2.2390 o          1 L0Y      -0.710000
     29 O30          4.2360    -1.8300     1.4190 o          1 L0Y      -0.656100
     30 O31         -0.2170     2.2510     0.2750 o          1 L0Y      -0.710000
     31 O32         -5.3180     2.2680    -1.5170 os         1 L0Y      -0.350100
     32 O33         -2.9930     3.3890    -0.3810 os         1 L0Y      -0.295100
     33 H1           3.8950    -5.9060    -1.3120 ha         1 L0Y       0.103000
     34 H2           1.5100    -6.6180    -1.2560 ha         1 L0Y       0.101000
     35 H3           4.5780    -3.7700    -0.2760 ha         1 L0Y       0.127000
     36 H4          -0.1780    -5.2020    -0.1330 ha         1 L0Y       0.105000
     37 H5          -3.9180    -1.7980    -0.0440 ha         1 L0Y       0.092000
     38 H6          -5.5210    -0.3350    -1.2360 ha         1 L0Y       0.104000
     39 H241        -0.6650    -3.6000     1.4490 h1         1 L0Y       0.035700
     40 H242         0.5240    -2.5130     2.1320 h1         1 L0Y       0.035700
     41 H251        -1.1960    -0.6490     2.1090 h1         1 L0Y       0.036200
     42 H252        -2.2390    -1.9640     1.6260 h1         1 L0Y       0.036200
     43 H27          1.2960    -1.0210     0.6400 hn         1 L0Y       0.374500
     44 H151         5.3930     4.0300    -1.6570 hc         1 L0Y       0.020700
     45 H152         5.9290     3.3100    -0.1410 hc         1 L0Y       0.020700
     46 H161         4.0210     4.8450     0.2940 hc         1 L0Y       0.031700
     47 H162         3.0250     4.0140    -0.8970 hc         1 L0Y       0.031700
     48 H171         4.1230     1.9790    -2.2540 hc         1 L0Y       0.031700
     49 H172         5.7940     1.5540    -1.8970 hc         1 L0Y       0.031700
     50 H181         4.0830     2.8280     1.7430 hc         1 L0Y       0.039200
     51 H182         2.4140     3.2600     1.3900 hc         1 L0Y       0.039200
     52 H191         4.1850    -0.0370    -0.8290 hc         1 L0Y       0.039200
     53 H192         5.1770     0.7750     0.3790 hc         1 L0Y       0.039200
     54 H22          2.2890     1.5140    -0.3860 hc         1 L0Y       0.105700
     55 H201        -5.6610     3.9350    -0.3240 h1         1 L0Y       0.049700
     56 H202        -5.8180     4.2120    -2.0780 h1         1 L0Y       0.049700
     57 H211        -3.3440     3.9530    -2.3500 h1         1 L0Y       0.054200
     58 H212        -3.6670     5.2120    -1.1300 h1         1 L0Y       0.054200
     59 H261         3.3360     0.4180     2.2660 h1         1 L0Y       0.060700
     60 H262         1.6770     0.9290     1.9270 h1         1 L0Y       0.060700
     61 H231        -1.6870    -2.9070    -0.9270 h1         1 L0Y       0.034700
     62 H232        -1.2950    -1.2670    -1.5020 h1         1 L0Y       0.034700
     63 H233        -0.0560    -2.5160    -1.5220 h1         1 L0Y       0.034700
     64 C14         -1.0890     1.8250     1.0190 c          1 L0Y       0.731600
@<TRIPOS>BOND
     1     1     2 ar  
     2     1     3 ar  
     3     1    33 1   
     4     2     4 ar  
     5     2    34 1   
     6     3     7 ar  
     7     3    35 1   
     8     4     9 ar  
     9     4    36 1   
    10     5     6 ar  
    11     5    10 ar  
    12     5    37 1   
    13     6    11 ar  
    14     6    38 1   
    15     7     9 ar  
    16     7    13 1   
    17     8    10 ar  
    18     8    12 ar  
    19     8    64 1   
    20     9    23 1   
    21    10    24 1   
    22    11    12 ar  
    23    11    31 1   
    24    12    32 1   
    25    13    26 1   
    26    13    29 2   
    27    14    15 1   
    28    14    16 1   
    29    14    44 1   
    30    14    45 1   
    31    15    17 1   
    32    15    46 1   
    33    15    47 1   
    34    16    18 1   
    35    16    48 1   
    36    16    49 1   
    37    17    21 1   
    38    17    50 1   
    39    17    51 1   
    40    18    21 1   
    41    18    52 1   
    42    18    53 1   
    43    19    20 1   
    44    19    31 1   
    45    19    55 1   
    46    19    56 1   
    47    20    32 1   
    48    20    57 1   
    49    20    58 1   
    50    21    25 1   
    51    21    54 1   
    52    22    27 1   
    53    22    61 1   
    54    22    62 1   
    55    22    63 1   
    56    23    27 1   
    57    23    39 1   
    58    23    40 1   
    59    24    27 1   
    60    24    41 1   
    61    24    42 1   
    62    25    26 1   
    63    25    59 1   
    64    25    60 1   
    65    26    43 1   
    66    28    64 1   
    67    30    64 1   
@<TRIPOS>SUBSTRUCTURE
     1 L0Y         1 TEMP              0 ****  ****    0 ROOT
