@<TRIPOS>MOLECULE
L0Y
   64    67     1     0     0
SMALL
abcg2


@<TRIPOS>ATOM
      1 C1           2.9990    -5.0050    -1.1980 ca         1 L0Y      -0.128000
      2 C2           1.7020    -5.4830    -1.0780 ca         1 L0Y      -0.110000
      3 C3           3.3580    -3.8360    -0.5500 ca         1 L0Y      -0.072000
      4 C4           0.7810    -4.7730    -0.3250 ca         1 L0Y      -0.122000
      5 C5          -3.8510    -0.5680     0.6370 ca         1 L0Y      -0.121000
      6 C6          -4.8160     0.2370     0.0560 ca         1 L0Y      -0.145000
      7 C7           2.4280    -3.1040     0.1890 ca         1 L0Y      -0.109600
      8 C8          -2.1390     1.0260     0.0950 ca         1 L0Y      -0.085600
      9 C9           1.1150    -3.5740     0.3050 ca         1 L0Y      -0.046300
     10 C10         -2.5120    -0.1840     0.6760 ca         1 L0Y      -0.091300
     11 C11         -4.4480     1.4470    -0.5150 ca         1 L0Y       0.041100
     12 C12         -3.1050     1.8300    -0.5000 ca         1 L0Y       0.061100
     13 C13          2.9650    -1.8840     0.8830 c          1 L0Y       0.594700
     14 C15          5.1430     3.4620    -0.4560 c6         1 L0Y      -0.071400
     15 C16          3.8280     3.9070     0.1770 c6         1 L0Y      -0.071900
     16 C17          4.9830     2.1140    -1.1490 c6         1 L0Y      -0.071900
     17 C18          3.2880     2.8490     1.1340 c6         1 L0Y      -0.065900
     18 C19          4.4500     1.0550    -0.1880 c6         1 L0Y      -0.065900
     19 C20         -5.0160     3.5530    -1.3550 c6         1 L0Y       0.119600
     20 C21         -3.6330     3.5660    -1.9610 c6         1 L0Y       0.118600
     21 C22          3.1330     1.4900     0.4520 c6         1 L0Y      -0.084700
     22 C23         -1.2030    -2.1820    -0.8440 c3         1 L0Y       0.148100
     23 C24          0.0450    -2.8720     1.1020 c3         1 L0Y       0.192100
     24 C25         -1.5090    -1.1030     1.3200 c3         1 L0Y       0.222100
     25 C26          2.5900     0.4730     1.4520 c3         1 L0Y       0.105000
     26 N27          2.2050    -0.7860     0.8480 ns         1 L0Y      -0.473900
     27 N28         -0.5770    -1.7570     0.3930 n3         1 L0Y      -0.691600
     28 O29         -0.3230     2.0800     1.1280 o          1 L0Y      -0.710000
     29 O30          4.0720    -1.9340     1.4130 o          1 L0Y      -0.656100
     30 O31         -0.0600     1.2980    -0.9570 o          1 L0Y      -0.710000
     31 O32         -5.4140     2.2210    -1.0720 os         1 L0Y      -0.350100
     32 O33         -2.7000     3.0050    -1.0550 os         1 L0Y      -0.295100
     33 H1           3.7310    -5.5470    -1.7830 ha         1 L0Y       0.103000
     34 H2           1.4090    -6.4050    -1.5620 ha         1 L0Y       0.101000
     35 H3           4.3780    -3.4800    -0.6220 ha         1 L0Y       0.127000
     36 H4          -0.2280    -5.1530    -0.2180 ha         1 L0Y       0.105000
     37 H5          -4.1480    -1.5140     1.0740 ha         1 L0Y       0.092000
     38 H6          -5.8560    -0.0640     0.0430 ha         1 L0Y       0.104000
     39 H241        -0.7150    -3.6160     1.3890 h1         1 L0Y       0.035700
     40 H242         0.4620    -2.4850     2.0360 h1         1 L0Y       0.035700
     41 H251        -0.9090    -0.5570     2.0550 h1         1 L0Y       0.036200
     42 H252        -2.0740    -1.8640     1.8810 h1         1 L0Y       0.036200
     43 H27          1.2860    -0.8310     0.4080 hn         1 L0Y       0.374500
     44 H151         5.5030     4.2150    -1.1620 hc         1 L0Y       0.020700
     45 H152         5.9070     3.3750     0.3250 hc         1 L0Y       0.020700
     46 H161         3.9590     4.8570     0.7010 hc         1 L0Y       0.031700
     47 H162         3.0910     4.0870    -0.6140 hc         1 L0Y       0.031700
     48 H171         4.2910     2.2200    -1.9920 hc         1 L0Y       0.031700
     49 H172         5.9380     1.7890    -1.5730 hc         1 L0Y       0.031700
     50 H181         3.9700     2.7560     1.9890 hc         1 L0Y       0.039200
     51 H182         2.3180     3.1590     1.5300 hc         1 L0Y       0.039200
     52 H191         4.3200     0.1070    -0.7170 hc         1 L0Y       0.039200
     53 H192         5.1930     0.8760     0.5980 hc         1 L0Y       0.039200
     54 H22          2.3750     1.6030    -0.3310 hc         1 L0Y       0.105700
     55 H201        -5.0350     4.1550    -0.4400 h1         1 L0Y       0.049700
     56 H202        -5.7430     3.9660    -2.0530 h1         1 L0Y       0.049700
     57 H211        -3.6280     3.0120    -2.9060 h1         1 L0Y       0.054200
     58 H212        -3.3160     4.5890    -2.1610 h1         1 L0Y       0.054200
     59 H261         3.3260     0.2820     2.2350 h1         1 L0Y       0.060700
     60 H262         1.7010     0.8920     1.9210 h1         1 L0Y       0.060700
     61 H231        -2.0110    -2.9140    -0.6960 h1         1 L0Y       0.034700
     62 H232        -1.6100    -1.3220    -1.3700 h1         1 L0Y       0.034700
     63 H233        -0.4590    -2.6370    -1.4960 h1         1 L0Y       0.034700
     64 C14         -0.6960     1.5120     0.0870 c          1 L0Y       0.731600
@<TRIPOS>BOND
     1     1     2 ar  
     2     1     3 ar  
     3     1    33 1   
     4     2     4 ar  
     5     2    34 1   
     6     3     7 ar  
     7     3    35 1   
     8     4     9 ar  
     9     4    36 1   
    10     5     6 ar  
    11     5    10 ar  
    12     5    37 1   
    13     6    11 ar  
    14     6    38 1   
    15     7     9 ar  
    16     7    13 1   
    17     8    10 ar  
    18     8    12 ar  
    19     8    64 1   
    20     9    23 1   
    21    10    24 1   
    22    11    12 ar  
    23    11    31 1   
    24    12    32 1   
    25    13    26 1   
    26    13    29 2   
    27    14    15 1   
    28    14    16 1   
    29    14    44 1   
    30    14    45 1   
    31    15    17 1   
    32    15    46 1   
    33    15    47 1   
    34    16    18 1   
    35    16    48 1   
    36    16    49 1   
    37    17    21 1   
    38    17    50 1   
    39    17    51 1   
    40    18    21 1   
    41    18    52 1   
    42    18    53 1   
    43    19    20 1   
    44    19    31 1   
    45    19    55 1   
    46    19    56 1   
    47    20    32 1   
    48    20    57 1   
    49    20    58 1   
    50    21    25 1   
    51    21    54 1   
    52    22    27 1   
    53    22    61 1   
    54    22    62 1   
    55    22    63 1   
    56    23    27 1   
    57    23    39 1   
    58    23    40 1   
    59    24    27 1   
    60    24    41 1   
    61    24    42 1   
    62    25    26 1   
    63    25    59 1   
    64    25    60 1   
    65    26    43 1   
    66    28    64 1   
    67    30    64 1   
@<TRIPOS>SUBSTRUCTURE
     1 L0Y         1 TEMP              0 ****  ****    0 ROOT
