@<TRIPOS>MOLECULE
L0Z
   82    87     1     0     0
SMALL
abcg2


@<TRIPOS>ATOM
      1 C1           2.7760     1.1370    -0.6810 ca         1 L0Z      -0.058300
      2 C2           3.5800     0.1820    -1.3170 ca         1 L0Z      -0.042000
      3 C3           3.1170    -0.5370    -2.4140 ca         1 L0Z      -0.090000
      4 O1           4.8360    -2.2810    -0.7420 o          1 L0Z      -0.584100
      5 C11         -1.5680     0.9920    -0.2190 cc         1 L0Z      -0.187200
      6 C12         -0.7150     2.1270    -0.2830 ca         1 L0Z      -0.187800
      7 C13         -3.9890     0.6660     0.5200 ca         1 L0Z      -0.019800
      8 C14         -4.1480    -0.5980    -0.0520 ca         1 L0Z      -0.106500
      9 C15         -5.2890    -1.3420     0.1840 ca         1 L0Z      -0.072000
     10 C16         -6.3010    -0.8460     1.0040 ca         1 L0Z      -0.137600
     11 C17         -6.1380     0.4010     1.5960 ca         1 L0Z      -0.072000
     12 C18         -5.0030     1.1550     1.3470 ca         1 L0Z      -0.106500
     13 C19         -7.4890    -1.6820     1.3630 c          1 L0Z       0.616700
     14 C20         -9.2330    -3.2160     0.6240 c6         1 L0Z       0.097500
     15 C21        -10.5830    -2.7010     0.1580 c6         1 L0Z       0.139800
     16 C22        -11.8250    -1.9130    -1.7300 c3         1 L0Z       0.151100
     17 C23         -9.5190    -1.3310    -1.4700 c6         1 L0Z       0.139800
     18 C24         -8.1480    -1.8230    -1.0340 c6         1 L0Z       0.097500
     19 C25          5.4470    -1.2360    -0.5960 c          1 L0Z       0.619700
     20 C26          6.8590    -1.2190    -0.1160 ca         1 L0Z      -0.159600
     21 C27          7.7160    -0.1300    -0.2710 ca         1 L0Z      -0.069500
     22 C28          9.0180    -0.1880     0.1920 ca         1 L0Z      -0.120500
     23 C29          9.5230    -1.3280     0.8230 ca         1 L0Z      -0.038300
     24 C30          8.6610    -2.4130     0.9630 ca         1 L0Z      -0.120500
     25 C31          7.3550    -2.3640     0.4990 ca         1 L0Z      -0.069500
     26 C32         10.9580    -1.3370     1.3350 c3         1 L0Z      -0.003700
     27 C35         11.0920    -0.2740     2.4340 c3         1 L0Z      -0.083433
     28 C34         11.3600    -2.6910     1.9170 c3         1 L0Z      -0.083433
     29 C33         11.9180    -1.0080     0.1820 c3         1 L0Z      -0.083433
     30 N5           4.8900    -0.0210    -0.8430 ns         1 L0Z      -0.161000
     31 C4           1.8350    -0.3260    -2.8870 ca         1 L0Z      -0.106000
     32 C5           1.0260     0.6210    -2.2820 ca         1 L0Z      -0.101000
     33 C6           1.4950     1.3650    -1.2020 cp         1 L0Z      -0.138500
     34 C            3.2870     1.8480     0.5390 c3         1 L0Z      -0.046800
     35 C7           0.6020     2.4060    -0.6510 cp         1 L0Z       0.230500
     36 C9          -1.4640     3.2310     0.1760 ca         1 L0Z       0.129500
     37 N1          -1.0140     4.4710     0.2740 nb         1 L0Z      -0.191000
     38 C8           0.2500     4.6010    -0.0940 ca         1 L0Z       0.137900
     39 N            1.0650     3.6470    -0.5410 nb         1 L0Z      -0.204000
     40 C10         -2.7760     1.4310     0.2580 cd         1 L0Z      -0.006300
     41 N2          -2.7000     2.7880     0.4960 na         1 L0Z      -0.317400
     42 O           -7.7530    -1.8590     2.5460 o          1 L0Z      -0.593100
     43 N3          -8.1850    -2.2450     0.3560 n          1 L0Z      -0.407800
     44 N4         -10.5330    -2.3410    -1.2450 n3         1 L0Z      -0.712600
     45 H1           3.7630    -1.2480    -2.9080 ha         1 L0Z       0.132000
     46 H2          -1.3150    -0.0280    -0.4630 ha         1 L0Z       0.217000
     47 H3          -3.3820    -1.0030    -0.7000 ha         1 L0Z       0.118000
     48 H4          -5.3850    -2.3190    -0.2720 ha         1 L0Z       0.127500
     49 H5          -6.9030     0.7970     2.2520 ha         1 L0Z       0.127500
     50 H6          -4.9100     2.1190     1.8300 ha         1 L0Z       0.118000
     51 H7          -9.2610    -3.4420     1.6860 h1         1 L0Z       0.063450
     52 H8          -8.9890    -4.1380     0.0880 h1         1 L0Z       0.063450
     53 H9         -11.3260    -3.4890     0.2990 h1         1 L0Z       0.041450
     54 H10        -10.8890    -1.8490     0.7900 h1         1 L0Z       0.041450
     55 H11        -12.2030    -1.0160    -1.2170 h1         1 L0Z       0.033033
     56 H12        -11.7690    -1.6900    -2.7960 h1         1 L0Z       0.033033
     57 H13        -12.5570    -2.7110    -1.5920 h1         1 L0Z       0.033033
     58 H14         -9.7500    -0.3920    -0.9370 h1         1 L0Z       0.041450
     59 H15         -9.4780    -1.0940    -2.5350 h1         1 L0Z       0.041450
     60 H16         -7.8380    -2.6650    -1.6600 h1         1 L0Z       0.063450
     61 H17         -7.4280    -1.0220    -1.1740 h1         1 L0Z       0.063450
     62 H18          7.3970     0.7730    -0.7750 ha         1 L0Z       0.123000
     63 H19          9.6500     0.6790     0.0520 ha         1 L0Z       0.117000
     64 H20          8.9960    -3.3240     1.4390 ha         1 L0Z       0.117000
     65 H21          6.7150    -3.2270     0.6240 ha         1 L0Z       0.123000
     66 H22         10.4180    -0.4860     3.2660 hc         1 L0Z       0.037033
     67 H23         12.1110    -0.2590     2.8250 hc         1 L0Z       0.037033
     68 H24         10.8650     0.7270     2.0650 hc         1 L0Z       0.037033
     69 H25         11.2810    -3.4930     1.1810 hc         1 L0Z       0.037033
     70 H26         12.3990    -2.6500     2.2480 hc         1 L0Z       0.037033
     71 H27         10.7570    -2.9660     2.7840 hc         1 L0Z       0.037033
     72 H28         11.7190    -0.0310    -0.2570 hc         1 L0Z       0.037033
     73 H29         12.9480    -1.0000     0.5450 hc         1 L0Z       0.037033
     74 H30         11.8500    -1.7540    -0.6120 hc         1 L0Z       0.037033
     75 H31          5.4020     0.8010    -0.5660 hn         1 L0Z       0.157000
     76 H32          1.4730    -0.8850    -3.7400 ha         1 L0Z       0.118000
     77 H33          0.0320     0.8060    -2.6680 ha         1 L0Z       0.119000
     78 H34          3.9440     2.6820     0.2800 hc         1 L0Z       0.047033
     79 H35          2.4800     2.2560     1.1410 hc         1 L0Z       0.047033
     80 H36          3.8570     1.1690     1.1730 hc         1 L0Z       0.047033
     81 H37          0.6710     5.5980    -0.0290 h5         1 L0Z       0.050100
     82 H38         -3.4570     3.3810     0.7980 hn         1 L0Z       0.365000
@<TRIPOS>BOND
     1     1     2 ar  
     2     1    33 ar  
     3     1    34 1   
     4     2     3 ar  
     5     2    30 1   
     6     3    31 ar  
     7     3    45 1   
     8     4    19 2   
     9     5     6 1   
    10     5    40 2   
    11     5    46 1   
    12     6    35 ar  
    13     6    36 ar  
    14     7     8 ar  
    15     7    12 ar  
    16     7    40 1   
    17     8     9 ar  
    18     8    47 1   
    19     9    10 ar  
    20     9    48 1   
    21    10    11 ar  
    22    10    13 1   
    23    11    12 ar  
    24    11    49 1   
    25    12    50 1   
    26    13    42 2   
    27    13    43 1   
    28    14    15 1   
    29    14    43 1   
    30    14    51 1   
    31    14    52 1   
    32    15    44 1   
    33    15    53 1   
    34    15    54 1   
    35    16    44 1   
    36    16    55 1   
    37    16    56 1   
    38    16    57 1   
    39    17    18 1   
    40    17    44 1   
    41    17    58 1   
    42    17    59 1   
    43    18    43 1   
    44    18    60 1   
    45    18    61 1   
    46    19    20 1   
    47    19    30 1   
    48    20    21 ar  
    49    20    25 ar  
    50    21    22 ar  
    51    21    62 1   
    52    22    23 ar  
    53    22    63 1   
    54    23    24 ar  
    55    23    26 1   
    56    24    25 ar  
    57    24    64 1   
    58    25    65 1   
    59    26    27 1   
    60    26    28 1   
    61    26    29 1   
    62    27    66 1   
    63    27    67 1   
    64    27    68 1   
    65    28    69 1   
    66    28    70 1   
    67    28    71 1   
    68    29    72 1   
    69    29    73 1   
    70    29    74 1   
    71    30    75 1   
    72    31    32 ar  
    73    31    76 1   
    74    32    33 ar  
    75    32    77 1   
    76    33    35 1   
    77    34    78 1   
    78    34    79 1   
    79    34    80 1   
    80    35    39 ar  
    81    36    37 ar  
    82    36    41 1   
    83    37    38 ar  
    84    38    39 ar  
    85    38    81 1   
    86    40    41 1   
    87    41    82 1   
@<TRIPOS>SUBSTRUCTURE
     1 L0Z         1 TEMP              0 ****  ****    0 ROOT
