@<TRIPOS>MOLECULE
L0Z
   82    87     1     0     0
SMALL
No Charge or Current Charge


@<TRIPOS>ATOM
      1 C1           2.6830     1.1010    -0.8030 ca         1 L0Z      -0.058300
      2 C2           3.3560     0.0040    -1.4060 ca         1 L0Z      -0.042000
      3 C3           2.7590    -0.6660    -2.4960 ca         1 L0Z      -0.090000
      4 O1           4.9850    -2.5320    -1.6440 o          1 L0Z      -0.584100
      5 C11         -1.5880     1.5190    -0.2100 cc         1 L0Z      -0.187200
      6 C12         -0.6700     2.6160    -0.3080 ca         1 L0Z      -0.187800
      7 C13         -4.0140     1.2560     0.5910 ca         1 L0Z      -0.019800
      8 C14         -4.0930    -0.1300     0.3400 ca         1 L0Z      -0.106500
      9 C15         -5.2730    -0.8450     0.6080 ca         1 L0Z      -0.072000
     10 C16         -6.4140    -0.1880     1.1200 ca         1 L0Z      -0.137600
     11 C17         -6.3260     1.1920     1.3950 ca         1 L0Z      -0.072000
     12 C18         -5.1460     1.9050     1.1270 ca         1 L0Z      -0.106500
     13 C19         -7.6930    -0.9360     1.4410 c          1 L0Z       0.616700
     14 C20         -9.0730    -3.0370     1.1520 c6         1 L0Z       0.097500
     15 C21        -10.3800    -2.8790     0.3270 c6         1 L0Z       0.139800
     16 C22        -11.3670    -2.9440    -1.9370 c3         1 L0Z       0.151100
     17 C23         -9.0880    -2.0550    -1.5850 c6         1 L0Z       0.139800
     18 C24         -7.7690    -2.1860    -0.7710 c6         1 L0Z       0.097500
     19 C25          5.3950    -1.5350    -1.0580 c          1 L0Z       0.619700
     20 C26          6.7710    -1.5090    -0.4160 ca         1 L0Z      -0.159600
     21 C27          7.2670    -0.3750     0.2680 ca         1 L0Z      -0.069500
     22 C28          8.5460    -0.3900     0.8490 ca         1 L0Z      -0.120500
     23 C29          9.3790    -1.5290     0.7740 ca         1 L0Z      -0.038300
     24 C30          8.8780    -2.6610     0.0880 ca         1 L0Z      -0.120500
     25 C31          7.5990    -2.6500    -0.4950 ca         1 L0Z      -0.069500
     26 C32         10.7850    -1.4970     1.4320 c3         1 L0Z      -0.003700
     27 C35         10.6320    -1.2290     2.9540 c3         1 L0Z      -0.083433
     28 C34         11.5700    -2.8280     1.2590 c3         1 L0Z      -0.083433
     29 C33         11.6260    -0.3610     0.7910 c3         1 L0Z      -0.083433
     30 N5           4.6420    -0.3740    -0.9180 ns         1 L0Z      -0.161000
     31 C4           1.5050    -0.2680    -2.9760 ca         1 L0Z      -0.106000
     32 C5           0.8430     0.8150    -2.3880 ca         1 L0Z      -0.101000
     33 C6           1.4160     1.5260    -1.3090 cp         1 L0Z      -0.138500
     34 C            3.3180     1.8000     0.4090 c3         1 L0Z      -0.046800
     35 C7           0.6700     2.7000    -0.7540 cp         1 L0Z       0.230500
     36 C9          -1.3170     3.7380     0.1540 ca         1 L0Z       0.129500
     37 N1          -0.6990     4.9340     0.1880 nb         1 L0Z      -0.191000
     38 C8           0.5790     4.9550    -0.2570 ca         1 L0Z       0.137900
     39 N            1.2880     3.9010    -0.7270 nb         1 L0Z      -0.204000
     40 C10         -2.7750     2.0140     0.3100 cd         1 L0Z      -0.006300
     41 N2          -2.6050     3.4010     0.5350 na         1 L0Z      -0.317400
     42 O           -8.3960    -0.5850     2.3810 o          1 L0Z      -0.593100
     43 N3          -8.0040    -2.1000     0.7020 n          1 L0Z      -0.407800
     44 N4         -10.1280    -3.0240    -1.1350 n3         1 L0Z      -0.712600
     45 H1           3.2590    -1.4880    -2.9970 ha         1 L0Z       0.132000
     46 H2          -1.3890     0.4860    -0.4840 ha         1 L0Z       0.217000
     47 H3          -3.2400    -0.6720    -0.0570 ha         1 L0Z       0.118000
     48 H4          -5.2880    -1.9180     0.4290 ha         1 L0Z       0.127500
     49 H5          -7.1830     1.7200     1.8110 ha         1 L0Z       0.127500
     50 H6          -5.1220     2.9700     1.3420 ha         1 L0Z       0.118000
     51 H7          -9.2940    -2.8950     2.2190 h1         1 L0Z       0.063450
     52 H8          -8.7060    -4.0670     1.0390 h1         1 L0Z       0.063450
     53 H9         -11.1040    -3.6340     0.6670 h1         1 L0Z       0.041450
     54 H10        -10.8160    -1.8920     0.5430 h1         1 L0Z       0.041450
     55 H11        -11.8400    -1.9580    -1.8310 h1         1 L0Z       0.033033
     56 H12        -11.1520    -3.1100    -3.0010 h1         1 L0Z       0.033033
     57 H13        -12.0880    -3.7070    -1.6150 h1         1 L0Z       0.033033
     58 H14         -9.4620    -1.0260    -1.4800 h1         1 L0Z       0.041450
     59 H15         -8.8600    -2.2070    -2.6500 h1         1 L0Z       0.041450
     60 H16         -7.2980    -3.1520    -1.0000 h1         1 L0Z       0.063450
     61 H17         -7.0850    -1.3980    -1.1120 h1         1 L0Z       0.063450
     62 H18          6.6780     0.5340     0.3600 ha         1 L0Z       0.123000
     63 H19          8.8870     0.5040     1.3640 ha         1 L0Z       0.117000
     64 H20          9.4630    -3.5700    -0.0090 ha         1 L0Z       0.117000
     65 H21          7.2540    -3.5420    -1.0130 ha         1 L0Z       0.123000
     66 H22         10.0080    -2.0010     3.4220 hc         1 L0Z       0.037033
     67 H23         11.6080    -1.2340     3.4540 hc         1 L0Z       0.037033
     68 H24         10.1670    -0.2560     3.1500 hc         1 L0Z       0.037033
     69 H25         11.7330    -3.0570     0.1980 hc         1 L0Z       0.037033
     70 H26         12.5550    -2.7670     1.7370 hc         1 L0Z       0.037033
     71 H27         11.0340    -3.6670     1.7190 hc         1 L0Z       0.037033
     72 H28         11.1730     0.6230     0.9600 hc         1 L0Z       0.037033
     73 H29         12.6380    -0.3350     1.2130 hc         1 L0Z       0.037033
     74 H30         11.7150    -0.5100    -0.2920 hc         1 L0Z       0.037033
     75 H31          5.0940     0.3460    -0.3720 hn         1 L0Z       0.157000
     76 H32          1.0530    -0.7910    -3.8160 ha         1 L0Z       0.118000
     77 H33         -0.1220     1.1250    -2.7860 ha         1 L0Z       0.119000
     78 H34          4.0100     2.5880     0.0880 hc         1 L0Z       0.047033
     79 H35          2.5660     2.2590     1.0600 hc         1 L0Z       0.047033
     80 H36          3.8720     1.1040     1.0490 hc         1 L0Z       0.047033
     81 H37          1.0880     5.9170    -0.2370 h5         1 L0Z       0.050100
     82 H38         -3.2970     4.0390     0.9100 hn         1 L0Z       0.365000
@<TRIPOS>BOND
     1     1     2 ar  
     2     1    33 ar  
     3     1    34 1   
     4     2     3 ar  
     5     2    30 1   
     6     3    31 ar  
     7     3    45 1   
     8     4    19 2   
     9     5     6 1   
    10     5    40 2   
    11     5    46 1   
    12     6    35 ar  
    13     6    36 ar  
    14     7     8 ar  
    15     7    12 ar  
    16     7    40 1   
    17     8     9 ar  
    18     8    47 1   
    19     9    10 ar  
    20     9    48 1   
    21    10    11 ar  
    22    10    13 1   
    23    11    12 ar  
    24    11    49 1   
    25    12    50 1   
    26    13    42 2   
    27    13    43 1   
    28    14    15 1   
    29    14    43 1   
    30    14    51 1   
    31    14    52 1   
    32    15    44 1   
    33    15    53 1   
    34    15    54 1   
    35    16    44 1   
    36    16    55 1   
    37    16    56 1   
    38    16    57 1   
    39    17    18 1   
    40    17    44 1   
    41    17    58 1   
    42    17    59 1   
    43    18    43 1   
    44    18    60 1   
    45    18    61 1   
    46    19    20 1   
    47    19    30 1   
    48    20    21 ar  
    49    20    25 ar  
    50    21    22 ar  
    51    21    62 1   
    52    22    23 ar  
    53    22    63 1   
    54    23    24 ar  
    55    23    26 1   
    56    24    25 ar  
    57    24    64 1   
    58    25    65 1   
    59    26    27 1   
    60    26    28 1   
    61    26    29 1   
    62    27    66 1   
    63    27    67 1   
    64    27    68 1   
    65    28    69 1   
    66    28    70 1   
    67    28    71 1   
    68    29    72 1   
    69    29    73 1   
    70    29    74 1   
    71    30    75 1   
    72    31    32 ar  
    73    31    76 1   
    74    32    33 ar  
    75    32    77 1   
    76    33    35 1   
    77    34    78 1   
    78    34    79 1   
    79    34    80 1   
    80    35    39 ar  
    81    36    37 ar  
    82    36    41 1   
    83    37    38 ar  
    84    38    39 ar  
    85    38    81 1   
    86    40    41 1   
    87    41    82 1   
@<TRIPOS>SUBSTRUCTURE
     1 L0Z         1 TEMP              0 ****  ****    0 ROOT
