@<TRIPOS>MOLECULE
L10
   47    49     1     0     0
SMALL
bcc


@<TRIPOS>ATOM
      1 CL16         7.7040    -1.4980    -0.2160 cl         1 L10      -0.124400
      2 C15          5.9770    -1.3360    -0.1430 ca         1 L10      -0.012600
      3 C14          5.3830    -0.1240    -0.4480 ca         1 L10      -0.091500
      4 C13          4.0040     0.0160    -0.3930 ca         1 L10      -0.175500
      5 C17          5.1960    -2.4230     0.2180 ca         1 L10      -0.091500
      6 C18          3.8220    -2.2830     0.2770 ca         1 L10      -0.175500
      7 C12          3.1970    -1.0660    -0.0240 ca         1 L10       0.106600
      8 N11          1.8150    -1.0320     0.0450 ns         1 L10      -0.461100
      9 C9           0.9590     0.0510     0.0220 c          1 L10       0.840500
     10 O10          1.3730     1.2020    -0.0950 o          1 L10      -0.654100
     11 N8          -0.3200    -0.3760     0.1460 ne         1 L10      -0.824100
     12 C7          -1.3010     0.4980     0.1630 cd         1 L10       0.786500
     13 C6          -1.4050     1.9200     0.0870 cd         1 L10      -0.367600
     14 N19         -2.5890     0.0440     0.2430 na         1 L10      -0.373800
     15 N20         -3.4510     1.0940     0.1220 na         1 L10      -0.458800
     16 C5          -2.7350     2.2390     0.1040 cc         1 L10       0.122800
     17 C2          -3.4200     3.5770     0.1010 c3         1 L10       0.002200
     18 C4          -2.3760     4.6900     0.0590 c3         1 L10      -0.087100
     19 C3          -4.2620     3.7230     1.3750 c3         1 L10      -0.087100
     20 C1          -4.3240     3.6760    -1.1350 c3         1 L10      -0.087100
     21 C21         -3.0720    -1.2720     0.1090 ca         1 L10       0.144600
     22 C26         -2.5280    -2.2930     0.8810 ca         1 L10      -0.125000
     23 C25         -3.0240    -3.5810     0.7510 ca         1 L10      -0.117500
     24 C24         -4.0660    -3.8530    -0.1270 ca         1 L10      -0.127000
     25 C23         -4.6090    -2.8260    -0.8850 ca         1 L10      -0.117500
     26 C22         -4.1110    -1.5360    -0.7780 ca         1 L10      -0.125000
     27 H14          5.9870     0.7260    -0.7370 ha         1 L10       0.142000
     28 H13          3.5690     0.9690    -0.6450 ha         1 L10       0.149000
     29 H17          5.6490    -3.3750     0.4590 ha         1 L10       0.142000
     30 H18          3.2220    -3.1370     0.5660 ha         1 L10       0.149000
     31 H11          1.3600    -1.9160     0.2110 hn         1 L10       0.325500
     32 H6          -0.5850     2.6070     0.0170 ha         1 L10       0.202000
     33 H20         -4.3590     0.9950     0.5570 hn         1 L10       0.464800
     34 H4C1        -1.7200     4.6600     0.9300 hc         1 L10       0.044033
     35 H4C2        -1.7580     4.6340    -0.8380 hc         1 L10       0.044033
     36 H4C3        -2.8790     5.6580     0.0550 hc         1 L10       0.044033
     37 H3C1        -4.7370     4.7050     1.3880 hc         1 L10       0.044033
     38 H3C2        -5.0590     2.9800     1.4380 hc         1 L10       0.044033
     39 H3C3        -3.6450     3.6390     2.2710 hc         1 L10       0.044033
     40 H1C1        -3.7480     3.5770    -2.0560 hc         1 L10       0.044033
     41 H1C2        -5.1020     2.9110    -1.1380 hc         1 L10       0.044033
     42 H1C3        -4.8160     4.6500    -1.1520 hc         1 L10       0.044033
     43 H26         -1.7280    -2.0850     1.5760 ha         1 L10       0.150500
     44 H25         -2.6000    -4.3740     1.3530 ha         1 L10       0.137000
     45 H24         -4.4520    -4.8600    -0.2170 ha         1 L10       0.136000
     46 H23         -5.4200    -3.0250    -1.5730 ha         1 L10       0.137000
     47 H22         -4.5270    -0.7450    -1.3890 ha         1 L10       0.150500
@<TRIPOS>BOND
     1     1     2 1   
     2     2     3 ar  
     3     2     5 ar  
     4     3     4 ar  
     5     3    27 1   
     6     4     7 ar  
     7     4    28 1   
     8     5     6 ar  
     9     5    29 1   
    10     6     7 ar  
    11     6    30 1   
    12     7     8 1   
    13     8     9 1   
    14     8    31 1   
    15     9    10 2   
    16     9    11 1   
    17    11    12 2   
    18    12    13 1   
    19    12    14 1   
    20    13    16 2   
    21    13    32 1   
    22    14    15 1   
    23    14    21 1   
    24    15    16 1   
    25    15    33 1   
    26    16    17 1   
    27    17    18 1   
    28    17    19 1   
    29    17    20 1   
    30    18    34 1   
    31    18    35 1   
    32    18    36 1   
    33    19    37 1   
    34    19    38 1   
    35    19    39 1   
    36    20    40 1   
    37    20    41 1   
    38    20    42 1   
    39    21    22 ar  
    40    21    26 ar  
    41    22    23 ar  
    42    22    43 1   
    43    23    24 ar  
    44    23    44 1   
    45    24    25 ar  
    46    24    45 1   
    47    25    26 ar  
    48    25    46 1   
    49    26    47 1   
@<TRIPOS>SUBSTRUCTURE
     1 L10         1 TEMP              0 ****  ****    0 ROOT
