@<TRIPOS>MOLECULE
L10
   47    49     1     0     0
SMALL
No Charge or Current Charge


@<TRIPOS>ATOM
      1 Cl16         5.4140    -4.5760     1.1090 cl         1 L10      -0.216000
      2 C15          4.2830    -3.3450     0.5620 ca         1 L10       0.079000
      3 C14          4.3460    -2.0470     1.0930 ca         1 L10      -0.073500
      4 C13          3.4410    -1.0610     0.6580 ca         1 L10      -0.157500
      5 C17          3.3170    -3.6600    -0.4060 ca         1 L10      -0.073500
      6 C18          2.4130    -2.6750    -0.8420 ca         1 L10      -0.157500
      7 C12          2.4660    -1.3690    -0.3160 ca         1 L10       0.014000
      8 N11          1.5120    -0.4330    -0.7900 ns         1 L10      -0.135000
      9 C9           1.2310     0.8730    -0.4350 c          1 L10       0.773500
     10 O10          1.8400     1.5570     0.3720 o          1 L10      -0.654100
     11 N8           0.1420     1.3020    -1.1510 ne         1 L10      -0.824100
     12 C7          -0.9260     1.6050    -0.4780 cd         1 L10       0.786500
     13 C6          -1.8170     2.6120    -0.8510 cd         1 L10      -0.417600
     14 N19         -1.4550     0.9520     0.6230 na         1 L10      -0.512200
     15 N20         -2.6650     1.6250     0.9130 na         1 L10      -0.514000
     16 C5          -2.9060     2.6430    -0.0130 cc         1 L10       0.122800
     17 C2          -4.1250     3.5530    -0.0050 c3         1 L10       0.002200
     18 C4          -4.0650     4.5700    -1.1760 c3         1 L10      -0.087100
     19 C3          -4.1800     4.3370     1.3320 c3         1 L10      -0.087100
     20 C1          -5.4090     2.6970    -0.1560 c3         1 L10      -0.087100
     21 C21         -1.4700    -0.4340     0.4270 ca         1 L10       0.283000
     22 C26         -0.7260    -1.2570     1.2920 ca         1 L10      -0.107000
     23 C25         -0.7030    -2.6510     1.1050 ca         1 L10      -0.099500
     24 C24         -1.4380    -3.2290     0.0560 ca         1 L10      -0.109000
     25 C23         -2.2010    -2.4160    -0.7990 ca         1 L10      -0.099500
     26 C22         -2.2210    -1.0220    -0.6120 ca         1 L10      -0.107000
     27 H14          5.0950    -1.8050     1.8430 ha         1 L10       0.124000
     28 H13          3.5150    -0.0680     1.0890 ha         1 L10       0.131000
     29 H17          3.2670    -4.6660    -0.8160 ha         1 L10       0.124000
     30 H18          1.6640    -2.9320    -1.5880 ha         1 L10       0.131000
     31 H11          0.8890    -0.7980    -1.4970 hn         1 L10       0.159000
     32 H6          -1.6520     3.2540    -1.7020 ha         1 L10       0.252000
     33 H20         -3.1740     1.4150     1.7800 hn         1 L10       0.520000
     34 H4C1        -3.1740     5.2060    -1.0990 hc         1 L10       0.044033
     35 H4C2        -4.0350     4.0540    -2.1430 hc         1 L10       0.044033
     36 H4C3        -4.9450     5.2250    -1.1730 hc         1 L10       0.044033
     37 H3C1        -5.0390     5.0190     1.3540 hc         1 L10       0.044033
     38 H3C2        -4.2700     3.6570     2.1870 hc         1 L10       0.044033
     39 H3C3        -3.2690     4.9330     1.4700 hc         1 L10       0.044033
     40 H1C1        -5.3820     2.1190    -1.0880 hc         1 L10       0.044033
     41 H1C2        -5.5130     1.9900     0.6760 hc         1 L10       0.044033
     42 H1C3        -6.3050     3.3300    -0.1730 hc         1 L10       0.044033
     43 H26         -0.1540    -0.8100     2.1010 ha         1 L10       0.132500
     44 H25         -0.1140    -3.2800     1.7700 ha         1 L10       0.119000
     45 H24         -1.4200    -4.3070    -0.0900 ha         1 L10       0.118000
     46 H23         -2.7760    -2.8650    -1.6070 ha         1 L10       0.119000
     47 H22         -2.8120    -0.3960    -1.2750 ha         1 L10       0.132500
@<TRIPOS>BOND
     1     1     2 1   
     2     2     3 ar  
     3     2     5 ar  
     4     3     4 ar  
     5     3    27 1   
     6     4     7 ar  
     7     4    28 1   
     8     5     6 ar  
     9     5    29 1   
    10     6     7 ar  
    11     6    30 1   
    12     7     8 1   
    13     8     9 1   
    14     8    31 1   
    15     9    10 2   
    16     9    11 1   
    17    11    12 2   
    18    12    13 1   
    19    12    14 1   
    20    13    16 2   
    21    13    32 1   
    22    14    15 1   
    23    14    21 1   
    24    15    16 1   
    25    15    33 1   
    26    16    17 1   
    27    17    18 1   
    28    17    19 1   
    29    17    20 1   
    30    18    34 1   
    31    18    35 1   
    32    18    36 1   
    33    19    37 1   
    34    19    38 1   
    35    19    39 1   
    36    20    40 1   
    37    20    41 1   
    38    20    42 1   
    39    21    22 ar  
    40    21    26 ar  
    41    22    23 ar  
    42    22    43 1   
    43    23    24 ar  
    44    23    44 1   
    45    24    25 ar  
    46    24    45 1   
    47    25    26 ar  
    48    25    46 1   
    49    26    47 1   
@<TRIPOS>SUBSTRUCTURE
     1 L10         1 TEMP              0 ****  ****    0 ROOT
