@<TRIPOS>MOLECULE
L11
   56    59     1     0     0
SMALL
No Charge or Current Charge


@<TRIPOS>ATOM
      1 Cl15        -5.2800    -2.2420     1.0510 cl         1 L11      -0.204000
      2 C14         -3.5620    -2.0470     0.7010 ca         1 L11       0.095000
      3 C13         -2.7720    -3.1980     0.5500 ca         1 L11      -0.077000
      4 C12         -1.4000    -3.0890     0.2670 ca         1 L11      -0.111000
      5 C16         -2.9780    -0.7680     0.5730 ca         1 L11      -0.054300
      6 C17         -3.8060     0.5020     0.7340 c3         1 L11       0.208900
      7 O18         -4.4750     0.7740    -0.5120 os         1 L11      -0.345100
      8 C19         -5.3140     1.8610    -0.6680 ca         1 L11       0.092100
      9 C24         -5.5850     2.7920     0.3710 ca         1 L11       0.258900
     10 N23         -6.4100     3.8590     0.2170 nb         1 L11      -0.637000
     11 C22         -6.9980     4.0320    -0.9910 ca         1 L11       0.300900
     12 C21         -6.7880     3.1590    -2.0750 ca         1 L11      -0.128000
     13 C20         -5.9320     2.0540    -1.9140 ca         1 L11      -0.112000
     14 C25         -1.6000    -0.6680     0.2860 ca         1 L11      -0.133000
     15 C11         -0.8030    -1.8170     0.1260 ca         1 L11      -0.023000
     16 N10          0.5780    -1.6250    -0.1560 ns         1 L11      -0.147000
     17 C8           1.5950    -2.5070    -0.5050 c          1 L11       0.612300
     18 O9           1.4130    -3.7020    -0.7100 o          1 L11      -0.572100
     19 C6           2.9480    -1.8670    -0.7160 ce         1 L11      -0.175400
     20 C7           3.9070    -2.4840    -1.4540 c2         1 L11      -0.175200
     21 C2           5.2790    -1.8990    -1.7220 c6         1 L11       0.222500
     22 F1           6.2330    -2.5080    -0.8840 f          1 L11      -0.262000
     23 C5           3.1840    -0.4480    -0.1490 c6         1 L11      -0.046200
     24 C4           4.6810     0.0040    -0.1110 c6         1 L11       0.189500
     25 C3           5.3380    -0.3790    -1.4690 c6         1 L11      -0.106400
     26 N26          4.8090     1.4760     0.1990 n3         1 L11      -0.714600
     27 C31          6.2400     1.9470     0.2400 c6         1 L11       0.122800
     28 C30          6.3630     3.4540     0.6160 c6         1 L11       0.151600
     29 O29          5.6940     3.7180     1.8690 os         1 L11      -0.444000
     30 C28          4.2930     3.3700     1.8240 c6         1 L11       0.151600
     31 C27          4.1190     1.8610     1.4810 c6         1 L11       0.122800
     32 H13         -3.2270    -4.1800     0.6550 ha         1 L11       0.135000
     33 H12         -0.8220    -4.0020     0.1690 ha         1 L11       0.149000
     34 H171        -4.5310     0.3740     1.5480 h1         1 L11       0.057200
     35 H172        -3.1470     1.3370     1.0050 h1         1 L11       0.057200
     36 H24         -5.1330     2.6910     1.3560 h4         1 L11       0.024100
     37 H22         -7.6560     4.8940    -1.0930 h4         1 L11       0.023100
     38 H21         -7.2840     3.3430    -3.0240 ha         1 L11       0.125000
     39 H20         -5.7520     1.3640    -2.7340 ha         1 L11       0.129000
     40 H25         -1.1470     0.3160     0.1820 ha         1 L11       0.130000
     41 H10          0.8770    -0.6620    -0.0840 hn         1 L11       0.156000
     42 H7           3.7360    -3.4720    -1.8860 ha         1 L11       0.213000
     43 H2           5.5830    -2.1130    -2.7570 h1         1 L11       0.066700
     44 H51          2.7770    -0.4180     0.8710 hc         1 L11       0.058700
     45 H52          2.6070     0.2750    -0.7440 hc         1 L11       0.058700
     46 H41          5.1850    -0.5740     0.6790 h1         1 L11       0.044700
     47 H3C1         6.3920    -0.0820    -1.5140 hc         1 L11       0.064700
     48 H3C2         4.8280     0.1490    -2.2850 hc         1 L11       0.064700
     49 H311         6.8170     1.3550     0.9650 h1         1 L11       0.043200
     50 H312         6.7260     1.8290    -0.7370 h1         1 L11       0.043200
     51 H301         7.4230     3.7300     0.7090 h1         1 L11       0.051700
     52 H302         5.9150     4.0750    -0.1730 h1         1 L11       0.051700
     53 H281         3.8370     3.5870     2.8010 h1         1 L11       0.051700
     54 H282         3.7880     3.9880     1.0670 h1         1 L11       0.051700
     55 H271         3.0390     1.6710     1.4220 h1         1 L11       0.043200
     56 H272         4.5100     1.2650     2.3190 h1         1 L11       0.043200
@<TRIPOS>BOND
     1     1     2 1   
     2     2     3 ar  
     3     2     5 ar  
     4     3     4 ar  
     5     3    32 1   
     6     4    15 ar  
     7     4    33 1   
     8     5     6 1   
     9     5    14 ar  
    10     6     7 1   
    11     6    34 1   
    12     6    35 1   
    13     7     8 1   
    14     8     9 ar  
    15     8    13 ar  
    16     9    10 ar  
    17     9    36 1   
    18    10    11 ar  
    19    11    12 ar  
    20    11    37 1   
    21    12    13 ar  
    22    12    38 1   
    23    13    39 1   
    24    14    15 ar  
    25    14    40 1   
    26    15    16 1   
    27    16    17 1   
    28    16    41 1   
    29    17    18 2   
    30    17    19 1   
    31    19    20 2   
    32    19    23 1   
    33    20    21 1   
    34    20    42 1   
    35    21    22 1   
    36    21    25 1   
    37    21    43 1   
    38    23    24 1   
    39    23    44 1   
    40    23    45 1   
    41    24    25 1   
    42    24    26 1   
    43    24    46 1   
    44    25    47 1   
    45    25    48 1   
    46    26    27 1   
    47    26    31 1   
    48    27    28 1   
    49    27    49 1   
    50    27    50 1   
    51    28    29 1   
    52    28    51 1   
    53    28    52 1   
    54    29    30 1   
    55    30    31 1   
    56    30    53 1   
    57    30    54 1   
    58    31    55 1   
    59    31    56 1   
@<TRIPOS>SUBSTRUCTURE
     1 L11         1 TEMP              0 ****  ****    0 ROOT
