@<TRIPOS>MOLECULE
L11
   56    59     1     0     0
SMALL
abcg2


@<TRIPOS>ATOM
      1 CL15        -5.1420    -2.9520     1.4340 cl         1 L11      -0.204000
      2 C14         -3.5020    -2.5540     1.0280 ca         1 L11       0.095000
      3 C13         -2.5110    -3.4940     1.2410 ca         1 L11      -0.077000
      4 C12         -1.1930    -3.2080     0.9250 ca         1 L11      -0.111000
      5 C16         -3.2080    -1.2990     0.5000 ca         1 L11      -0.054300
      6 C17         -4.3110    -0.3040     0.2820 c3         1 L11       0.208900
      7 O18         -3.7640     0.8830    -0.2410 os         1 L11      -0.345100
      8 C19         -4.5890     1.9140    -0.5020 ca         1 L11       0.092100
      9 C24         -5.9710     1.8900    -0.3250 ca         1 L11       0.258900
     10 N23         -6.7460     2.9330    -0.6010 nb         1 L11      -0.637000
     11 C22         -6.1890     4.0420    -1.0610 ca         1 L11       0.300900
     12 C21         -4.8200     4.1610    -1.2680 ca         1 L11      -0.128000
     13 C20         -4.0050     3.0830    -0.9850 ca         1 L11      -0.112000
     14 C25         -1.8870    -1.0240     0.1820 ca         1 L11      -0.133000
     15 C11         -0.8750    -1.9640     0.3850 ca         1 L11      -0.023000
     16 N10          0.4270    -1.5730     0.0580 ns         1 L11      -0.147000
     17 C8           1.4630    -2.3740    -0.3060 c          1 L11       0.612300
     18 O9           1.3830    -3.5880    -0.3550 o          1 L11      -0.572100
     19 C6           2.7190    -1.6400    -0.6680 ce         1 L11      -0.175400
     20 C7           3.6000    -2.2820    -1.4340 c2         1 L11      -0.175200
     21 C2           4.8560    -1.6420    -1.9190 c6         1 L11       0.222500
     22 F1           5.9360    -2.2850    -1.2890 f          1 L11      -0.262000
     23 C5           2.9450    -0.2450    -0.1520 c6         1 L11      -0.046200
     24 C4           4.4120     0.1780    -0.2400 c6         1 L11       0.189500
     25 C3           4.9100    -0.1590    -1.6430 c6         1 L11      -0.106400
     26 N26          4.5820     1.6010     0.0490 n3         1 L11      -0.714600
     27 C31          5.9920     1.9600     0.1470 c6         1 L11       0.122800
     28 C30          6.1550     3.4440     0.4090 c6         1 L11       0.151600
     29 O29          5.4930     3.8470     1.5850 os         1 L11      -0.444000
     30 C28          4.1280     3.5090     1.5080 c6         1 L11       0.151600
     31 C27          3.9170     2.0250     1.2740 c6         1 L11       0.122800
     32 H13         -2.7620    -4.4580     1.6630 ha         1 L11       0.135000
     33 H12         -0.4370    -3.9510     1.1160 ha         1 L11       0.149000
     34 H171        -5.0530    -0.7270    -0.4060 h1         1 L11       0.057200
     35 H172        -4.8240    -0.1070     1.2310 h1         1 L11       0.057200
     36 H24         -6.4790     1.0080     0.0480 h4         1 L11       0.024100
     37 H22         -6.8530     4.8710    -1.2780 h4         1 L11       0.023100
     38 H21         -4.4010     5.0840    -1.6430 ha         1 L11       0.125000
     39 H20         -2.9340     3.1350    -1.1320 ha         1 L11       0.129000
     40 H25         -1.6270    -0.0600    -0.2350 ha         1 L11       0.130000
     41 H10          0.5510    -0.5790    -0.0590 hn         1 L11       0.156000
     42 H7           3.4100    -3.3010    -1.7490 ha         1 L11       0.213000
     43 H2           4.9720    -1.8240    -2.9900 h1         1 L11       0.066700
     44 H51          2.6050    -0.2060     0.8850 hc         1 L11       0.058700
     45 H52          2.3350     0.4760    -0.7130 hc         1 L11       0.058700
     46 H41          4.9750    -0.4270     0.4930 h1         1 L11       0.044700
     47 H3C1         5.9300     0.1810    -1.8210 hc         1 L11       0.064700
     48 H3C2         4.2790     0.3520    -2.3770 hc         1 L11       0.064700
     49 H311         6.4950     1.3850     0.9430 h1         1 L11       0.043200
     50 H312         6.5110     1.7360    -0.7840 h1         1 L11       0.043200
     51 H301         7.2140     3.6810     0.5300 h1         1 L11       0.051700
     52 H302         5.7790     4.0080    -0.4570 h1         1 L11       0.051700
     53 H281         3.6620     3.8010     2.4510 h1         1 L11       0.051700
     54 H282         3.6390     4.0730     0.7010 h1         1 L11       0.051700
     55 H271         2.8420     1.8630     1.2010 h1         1 L11       0.043200
     56 H272         4.2760     1.4580     2.1510 h1         1 L11       0.043200
@<TRIPOS>BOND
     1     1     2 1   
     2     2     3 ar  
     3     2     5 ar  
     4     3     4 ar  
     5     3    32 1   
     6     4    15 ar  
     7     4    33 1   
     8     5     6 1   
     9     5    14 ar  
    10     6     7 1   
    11     6    34 1   
    12     6    35 1   
    13     7     8 1   
    14     8     9 ar  
    15     8    13 ar  
    16     9    10 ar  
    17     9    36 1   
    18    10    11 ar  
    19    11    12 ar  
    20    11    37 1   
    21    12    13 ar  
    22    12    38 1   
    23    13    39 1   
    24    14    15 ar  
    25    14    40 1   
    26    15    16 1   
    27    16    17 1   
    28    16    41 1   
    29    17    18 2   
    30    17    19 1   
    31    19    20 2   
    32    19    23 1   
    33    20    21 1   
    34    20    42 1   
    35    21    22 1   
    36    21    25 1   
    37    21    43 1   
    38    23    24 1   
    39    23    44 1   
    40    23    45 1   
    41    24    25 1   
    42    24    26 1   
    43    24    46 1   
    44    25    47 1   
    45    25    48 1   
    46    26    27 1   
    47    26    31 1   
    48    27    28 1   
    49    27    49 1   
    50    27    50 1   
    51    28    29 1   
    52    28    51 1   
    53    28    52 1   
    54    29    30 1   
    55    30    31 1   
    56    30    53 1   
    57    30    54 1   
    58    31    55 1   
    59    31    56 1   
@<TRIPOS>SUBSTRUCTURE
     1 L11         1 TEMP              0 ****  ****    0 ROOT
