@<TRIPOS>MOLECULE
L12
   31    33     1     0     0
SMALL
No Charge or Current Charge


@<TRIPOS>ATOM
      1 C4           4.2640    12.1810    29.3750 cc         1 L12      -0.145400
      2 C5           2.9760    12.9570    29.2740 c3         1 L12       0.006800
      3 C6           1.9850    12.6440    30.4160 c3         1 L12      -0.035100
      4 C7           1.5910    11.1730    30.4630 ca         1 L12      -0.034300
      5 C8           2.3140    10.2510    31.2400 ca         1 L12      -0.160000
      6 C10          1.9260     8.9010    31.2460 ca         1 L12       0.329400
      7 N12          0.8740     8.4320    30.5350 nb         1 L12      -0.670000
      8 C13          0.1780     9.3200    29.7860 ca         1 L12       0.329400
      9 C15          0.5010    10.6870    29.7210 ca         1 L12      -0.160000
     10 C11          4.6690    11.1140    28.5780 cd         1 L12      -0.148100
     11 C20          5.4270    13.2970    31.3860 ca         1 L12      -0.064000
     12 C21          5.3080    12.3650    30.3440 ca         1 L12      -0.097800
     13 C22          6.2710    11.4260    30.1030 ca         1 L12      -0.048200
     14 C24          7.4270    11.3450    30.8910 ca         1 L12      -0.128000
     15 C26          7.5780    12.2660    31.9500 ca         1 L12      -0.092000
     16 N11          5.9240    10.6340    29.0250 na         1 L12      -0.224700
     17 C28          6.5810    13.2390    32.1960 ca         1 L12      -0.141000
     18 H5C1         2.4900    12.7450    28.3140 hc         1 L12       0.045700
     19 H5C2         3.1950    14.0310    29.2780 hc         1 L12       0.045700
     20 H6C1         1.0910    13.2680    30.2890 hc         1 L12       0.051700
     21 H6C2         2.4290    12.9450    31.3730 hc         1 L12       0.051700
     22 H8           3.1710    10.5690    31.8260 ha         1 L12       0.124000
     23 H10          2.4750     8.1700    31.8390 h4         1 L12       0.015600
     24 H13         -0.6630     8.9220    29.2200 h4         1 L12       0.015600
     25 H15         -0.0920    11.3510    29.1000 ha         1 L12       0.124000
     26 H11          4.1500    10.6570    27.7380 h4         1 L12       0.214000
     27 H20          4.6570    14.0440    31.5640 ha         1 L12       0.112000
     28 H24          8.1890    10.5940    30.6940 ha         1 L12       0.113000
     29 H26          8.4640    12.2280    32.5790 ha         1 L12       0.110000
     30 HA           6.4590     9.8630    28.6360 hn         1 L12       0.351000
     31 H28          6.7040    13.9470    33.0120 ha         1 L12       0.110000
@<TRIPOS>BOND
     1     1     2 1   
     2     1    10 2   
     3     1    12 1   
     4     2     3 1   
     5     2    18 1   
     6     2    19 1   
     7     3     4 1   
     8     3    20 1   
     9     3    21 1   
    10     4     5 ar  
    11     4     9 ar  
    12     5     6 ar  
    13     5    22 1   
    14     6     7 ar  
    15     6    23 1   
    16     7     8 ar  
    17     8     9 ar  
    18     8    24 1   
    19     9    25 1   
    20    10    16 1   
    21    10    26 1   
    22    11    12 ar  
    23    11    17 ar  
    24    11    27 1   
    25    12    13 ar  
    26    13    14 ar  
    27    13    16 1   
    28    14    15 ar  
    29    14    28 1   
    30    15    17 ar  
    31    15    29 1   
    32    16    30 1   
    33    17    31 1   
@<TRIPOS>SUBSTRUCTURE
     1 L12         1 TEMP              0 ****  ****    0 ROOT
