@<TRIPOS>MOLECULE
L12
   31    33     1     0     0
SMALL
abcg2


@<TRIPOS>ATOM
      1 C4           4.2490    12.1630    29.4000 cc         1 L12      -0.145400
      2 C5           2.9650    12.9100    29.2760 c3         1 L12       0.006800
      3 C6           1.9790    12.6210    30.4240 c3         1 L12      -0.035100
      4 C7           1.5830    11.1780    30.4650 ca         1 L12      -0.034300
      5 C8           2.3170    10.2380    31.1820 ca         1 L12      -0.160000
      6 C10          1.9320     8.9070    31.1490 ca         1 L12       0.329400
      7 N12          0.8870     8.4590    30.4600 nb         1 L12      -0.670000
      8 C13          0.1880     9.3540    29.7730 ca         1 L12       0.329400
      9 C15          0.4910    10.7060    29.7430 ca         1 L12      -0.160000
     10 C11          4.6530    11.0890    28.6610 cd         1 L12      -0.148100
     11 C20          5.4590    13.3210    31.3960 ca         1 L12      -0.064000
     12 C21          5.2810    12.3860    30.3690 ca         1 L12      -0.097800
     13 C22          6.2800    11.4110    30.1480 ca         1 L12      -0.048200
     14 C24          7.4420    11.3520    30.9160 ca         1 L12      -0.128000
     15 C26          7.5900    12.2890    31.9210 ca         1 L12      -0.092000
     16 N11          5.8660    10.6370    29.1040 na         1 L12      -0.224700
     17 C28          6.6090    13.2650    32.1610 ca         1 L12      -0.141000
     18 H5C1         2.4850    12.6660    28.3260 hc         1 L12       0.045700
     19 H5C2         3.1530    13.9870    29.2580 hc         1 L12       0.045700
     20 H6C1         1.0930    13.2450    30.2910 hc         1 L12       0.051700
     21 H6C2         2.4310    12.9090    31.3760 hc         1 L12       0.051700
     22 H8           3.1820    10.5350    31.7610 ha         1 L12       0.124000
     23 H10          2.4970     8.1680    31.7070 h4         1 L12       0.015600
     24 H13         -0.6640     8.9790    29.2150 h4         1 L12       0.015600
     25 H15         -0.1220    11.3830    29.1600 ha         1 L12       0.124000
     26 H11          4.1540    10.6000    27.8390 h4         1 L12       0.214000
     27 H20          4.7100    14.0800    31.5860 ha         1 L12       0.112000
     28 H24          8.2020    10.6030    30.7330 ha         1 L12       0.113000
     29 H26          8.4820    12.2710    32.5350 ha         1 L12       0.110000
     30 HA           6.3780     9.8710    28.7010 hn         1 L12       0.351000
     31 H28          6.7580    13.9830    32.9570 ha         1 L12       0.110000
@<TRIPOS>BOND
     1     1     2 1   
     2     1    10 2   
     3     1    12 1   
     4     2     3 1   
     5     2    18 1   
     6     2    19 1   
     7     3     4 1   
     8     3    20 1   
     9     3    21 1   
    10     4     5 ar  
    11     4     9 ar  
    12     5     6 ar  
    13     5    22 1   
    14     6     7 ar  
    15     6    23 1   
    16     7     8 ar  
    17     8     9 ar  
    18     8    24 1   
    19     9    25 1   
    20    10    16 1   
    21    10    26 1   
    22    11    12 ar  
    23    11    17 ar  
    24    11    27 1   
    25    12    13 ar  
    26    13    14 ar  
    27    13    16 1   
    28    14    15 ar  
    29    14    28 1   
    30    15    17 ar  
    31    15    29 1   
    32    16    30 1   
    33    17    31 1   
@<TRIPOS>SUBSTRUCTURE
     1 L12         1 TEMP              0 ****  ****    0 ROOT
