@<TRIPOS>MOLECULE
L13
   24    25     1     0     0
SMALL
No Charge or Current Charge


@<TRIPOS>ATOM
      1 N14         -1.0310    -1.6940    -1.0170 nv         1 L13      -0.707200
      2 N5          -1.2400    -0.4690    -0.2660 n          1 L13      -0.136700
      3 C1          -2.4250     0.1840     0.0510 cs         1 L13       0.342400
      4 S6          -4.0090    -0.2420    -0.2800 s          1 L13      -0.615400
      5 N2          -1.9790     1.2960     0.6940 ns         1 L13      -0.265400
      6 N3          -0.6400     1.4240     0.8210 nc         1 L13      -0.487300
      7 C4          -0.1850     0.3330     0.2250 cd         1 L13       0.452500
      8 C7           1.2520    -0.0250     0.1380 ca         1 L13      -0.123900
      9 C12          1.6590    -1.3200     0.5300 ca         1 L13      -0.059000
     10 C11          3.0140    -1.6870     0.5130 ca         1 L13      -0.121000
     11 C10          3.9860    -0.7600     0.1140 ca         1 L13      -0.082000
     12 C9           3.6000     0.5340    -0.2660 ca         1 L13      -0.121000
     13 C8           2.2430     0.9160    -0.2550 ca         1 L13      -0.026300
     14 C13          1.8830     2.3290    -0.7070 c3         1 L13      -0.054800
     15 H141        -1.4740    -2.4680    -0.5230 hn         1 L13       0.434000
     16 H142        -1.3530    -1.5480    -1.9740 hn         1 L13       0.434000
     17 HN2         -2.6360     1.9950     1.0560 hn         1 L13       0.509000
     18 H12          0.9220    -2.0450     0.8660 ha         1 L13       0.120000
     19 H11          3.3090    -2.6890     0.8170 ha         1 L13       0.120000
     20 H10          5.0360    -1.0420     0.1010 ha         1 L13       0.117000
     21 H9           4.3640     1.2450    -0.5730 ha         1 L13       0.117000
     22 H131         1.0160     2.3270    -1.3770 hc         1 L13       0.050700
     23 H132         1.6500     2.9700     0.1520 hc         1 L13       0.050700
     24 H133         2.7080     2.8020    -1.2530 hc         1 L13       0.050700
@<TRIPOS>BOND
     1     1     2 1   
     2     1    15 1   
     3     1    16 1   
     4     2     3 1   
     5     2     7 1   
     6     3     4 2   
     7     3     5 1   
     8     5     6 1   
     9     5    17 1   
    10     6     7 2   
    11     7     8 1   
    12     8     9 ar  
    13     8    13 ar  
    14     9    10 ar  
    15     9    18 1   
    16    10    11 ar  
    17    10    19 1   
    18    11    12 ar  
    19    11    20 1   
    20    12    13 ar  
    21    12    21 1   
    22    13    14 1   
    23    14    22 1   
    24    14    23 1   
    25    14    24 1   
@<TRIPOS>SUBSTRUCTURE
     1 L13         1 TEMP              0 ****  ****    0 ROOT
