@<TRIPOS>MOLECULE
L13
   24    25     1     0     0
SMALL
bcc


@<TRIPOS>ATOM
      1 N14         -1.0040    -1.5780    -1.0080 nv         1 L13      -0.596800
      2 N5          -1.1640    -0.4330    -0.2660 n          1 L13      -0.203700
      3 C1          -2.3500     0.1840     0.0130 cs         1 L13       0.476400
      4 S6          -3.8750    -0.3200    -0.4260 s          1 L13      -0.615400
      5 N2          -1.9620     1.2660     0.6940 ns         1 L13      -0.218900
      6 N3          -0.6270     1.3590     0.8560 nc         1 L13      -0.487300
      7 C4          -0.1440     0.3170     0.2610 cd         1 L13       0.452500
      8 C7           1.2760    -0.0340     0.1790 ca         1 L13      -0.123900
      9 C12          1.6730    -1.3130     0.5670 ca         1 L13      -0.077000
     10 C11          3.0090    -1.6760     0.5360 ca         1 L13      -0.139000
     11 C10          3.9540    -0.7560     0.1050 ca         1 L13      -0.100000
     12 C9           3.5580     0.5130    -0.2900 ca         1 L13      -0.139000
     13 C8           2.2210     0.9030    -0.2620 ca         1 L13      -0.026300
     14 C13          1.8410     2.2850    -0.7110 c3         1 L13      -0.054800
     15 H141        -1.4900    -2.3360    -0.5430 hn         1 L13       0.378800
     16 H142        -1.4490    -1.4390    -1.9080 hn         1 L13       0.378800
     17 HN2         -2.5710     1.9720     1.0780 hn         1 L13       0.395500
     18 H12          0.9340    -2.0250     0.9100 ha         1 L13       0.138000
     19 H11          3.3070    -2.6670     0.8490 ha         1 L13       0.138000
     20 H10          5.0020    -1.0260     0.0730 ha         1 L13       0.135000
     21 H9           4.3030     1.2210    -0.6340 ha         1 L13       0.135000
     22 H131         1.0020     2.2680    -1.4080 hc         1 L13       0.050700
     23 H132         1.5440     2.9120     0.1290 hc         1 L13       0.050700
     24 H133         2.6790     2.7690    -1.2080 hc         1 L13       0.050700
@<TRIPOS>BOND
     1     1     2 1   
     2     1    15 1   
     3     1    16 1   
     4     2     3 1   
     5     2     7 1   
     6     3     4 2   
     7     3     5 1   
     8     5     6 1   
     9     5    17 1   
    10     6     7 2   
    11     7     8 1   
    12     8     9 ar  
    13     8    13 ar  
    14     9    10 ar  
    15     9    18 1   
    16    10    11 ar  
    17    10    19 1   
    18    11    12 ar  
    19    11    20 1   
    20    12    13 ar  
    21    12    21 1   
    22    13    14 1   
    23    14    22 1   
    24    14    23 1   
    25    14    24 1   
@<TRIPOS>SUBSTRUCTURE
     1 L13         1 TEMP              0 ****  ****    0 ROOT
