@<TRIPOS>MOLECULE
L14
   22    22     1     0     0
SMALL
No Charge or Current Charge


@<TRIPOS>ATOM
      1 OAA         -3.7480    -0.0100     1.0490 o          1 L14      -0.762500
      2 OAC         -3.3690     0.0070    -1.0690 o          1 L14      -0.762500
      3 OAD          3.3660     0.0200     1.0650 o          1 L14      -0.762500
      4 CAE         -0.7650     1.2900    -0.1570 c6         1 L14      -0.055400
      5 CAF          0.7510     1.2940     0.1710 c6         1 L14      -0.055400
      6 CAG         -0.7540    -1.2670    -0.1750 c6         1 L14      -0.055400
      7 CAH          0.7610    -1.2640     0.1530 c6         1 L14      -0.055400
      8 CAI         -2.9860     0.0000     0.0920 c          1 L14       0.715000
      9 CAJ          2.9830     0.0260    -0.0960 c          1 L14       0.715000
     10 CAK         -1.4610     0.0050     0.3760 c6         1 L14      -0.178700
     11 CAL          1.4570     0.0220    -0.3790 c6         1 L14      -0.178700
     12 HAE         -1.2380     2.1790     0.2830 hc         1 L14       0.020200
     13 HAEA        -0.9030     1.3700    -1.2440 hc         1 L14       0.020200
     14 HAF          1.2170     2.1930    -0.2560 hc         1 L14       0.020200
     15 HAFA         0.8890     1.3600     1.2590 hc         1 L14       0.020200
     16 HAG         -0.8920    -1.3330    -1.2630 hc         1 L14       0.020200
     17 HAGA        -1.2200    -2.1660     0.2520 hc         1 L14       0.020200
     18 HAH          0.9000    -1.3430     1.2400 hc         1 L14       0.020200
     19 HAHA         1.2350    -2.1520    -0.2870 hc         1 L14       0.020200
     20 HAK         -1.3420    -0.0030     1.4690 hc         1 L14       0.018200
     21 HAL          1.3380     0.0290    -1.4730 hc         1 L14       0.018200
     22 OAB          3.7440     0.0360    -1.0520 o          1 L14      -0.762500
@<TRIPOS>BOND
     1     1     8 1   
     2     2     8 1   
     3     3     9 1   
     4     4     5 1   
     5     4    10 1   
     6     4    12 1   
     7     4    13 1   
     8     5    11 1   
     9     5    14 1   
    10     5    15 1   
    11     6     7 1   
    12     6    10 1   
    13     6    16 1   
    14     6    17 1   
    15     7    11 1   
    16     7    18 1   
    17     7    19 1   
    18     8    10 1   
    19     9    11 1   
    20     9    22 1   
    21    10    20 1   
    22    11    21 1   
@<TRIPOS>SUBSTRUCTURE
     1 L14         1 TEMP              0 ****  ****    0 ROOT
