@<TRIPOS>MOLECULE
L14
   22    22     1     0     0
SMALL
bcc


@<TRIPOS>ATOM
      1 OAA         -3.5610    -1.0810     0.3080 o          1 L14      -0.867800
      2 OAC         -3.5020     1.0350    -0.3630 o          1 L14      -0.867800
      3 OAD          3.5270     1.1020     0.1400 o          1 L14      -0.867800
      4 CAE         -0.7470     1.2730    -0.1570 c6         1 L14      -0.055400
      5 CAF          0.7430     1.2700     0.1740 c6         1 L14      -0.055400
      6 CAG         -0.7480    -1.2290    -0.1680 c6         1 L14      -0.055400
      7 CAH          0.7430    -1.2320     0.1540 c6         1 L14      -0.055400
      8 CAI         -2.9680    -0.0070     0.0690 c          1 L14       0.925600
      9 CAJ          2.9670     0.0080    -0.0790 c          1 L14       0.925600
     10 CAK         -1.4520     0.0230     0.3570 c6         1 L14      -0.178700
     11 CAL          1.4470     0.0240    -0.3530 c6         1 L14      -0.178700
     12 HAE         -1.2170     2.1670     0.2580 hc         1 L14       0.020200
     13 HAEA        -0.8730     1.3410    -1.2440 hc         1 L14       0.020200
     14 HAF          1.2140     2.1670    -0.2340 hc         1 L14       0.020200
     15 HAFA         0.8720     1.3280     1.2620 hc         1 L14       0.020200
     16 HAG         -0.8800    -1.2880    -1.2560 hc         1 L14       0.020200
     17 HAGA        -1.2210    -2.1200     0.2470 hc         1 L14       0.020200
     18 HAH          0.8740    -1.3060     1.2410 hc         1 L14       0.020200
     19 HAHA         1.2130    -2.1200    -0.2710 hc         1 L14       0.020200
     20 HAK         -1.3430     0.0110     1.4530 hc         1 L14       0.018200
     21 HAL          1.3360     0.0310    -1.4500 hc         1 L14       0.018200
     22 OAB          3.5390    -1.1020    -0.1300 o          1 L14      -0.867800
@<TRIPOS>BOND
     1     1     8 1   
     2     2     8 1   
     3     3     9 1   
     4     4     5 1   
     5     4    10 1   
     6     4    12 1   
     7     4    13 1   
     8     5    11 1   
     9     5    14 1   
    10     5    15 1   
    11     6     7 1   
    12     6    10 1   
    13     6    16 1   
    14     6    17 1   
    15     7    11 1   
    16     7    18 1   
    17     7    19 1   
    18     8    10 1   
    19     9    11 1   
    20     9    22 1   
    21    10    20 1   
    22    11    21 1   
@<TRIPOS>SUBSTRUCTURE
     1 L14         1 TEMP              0 ****  ****    0 ROOT
