@<TRIPOS>MOLECULE
L15
   30    31     1     0     0
SMALL
abcg2


@<TRIPOS>ATOM
      1 C1           1.6710    -3.4820    -2.3030 c3         1 L15      -0.121400
      2 C2           1.7150    -2.0090    -2.5210 cc         1 L15       0.272300
      3 N3           1.6560    -1.5080    -3.7430 nd         1 L15      -0.527800
      4 N4           1.6950    -0.1890    -3.5900 na         1 L15      -0.001200
      5 C5           1.7680     0.1880    -2.3080 cd         1 L15      -0.158000
      6 C6           1.7860    -0.9700    -1.5550 cc         1 L15      -0.156000
      7 C7           1.8360    -1.0570    -0.0950 ca         1 L15       0.013000
      8 C8           1.2220    -0.0810     0.6940 ca         1 L15      -0.107000
      9 C9           1.2800    -0.1390     2.0780 ca         1 L15      -0.105500
     10 C10          1.9430    -1.1750     2.7300 ca         1 L15      -0.084300
     11 C11          1.9570    -1.2670     4.2290 c3         1 L15      -0.032100
     12 C12          0.8370    -2.1640     4.7520 c3         1 L15       0.149800
     13 N13          0.8700    -2.2340     6.2050 n8         1 L15      -0.998200
     14 C14          2.5520    -2.1500     1.9450 ca         1 L15      -0.105500
     15 C15          2.5050    -2.0920     0.5600 ca         1 L15      -0.107000
     16 H1C1         2.6530    -3.8900    -2.0580 hc         1 L15       0.048700
     17 H1C2         1.0020    -3.7420    -1.4820 hc         1 L15       0.048700
     18 H1C3         1.3210    -3.9900    -3.2010 hc         1 L15       0.048700
     19 H4           1.6690     0.4110    -4.3980 hn         1 L15       0.373000
     20 H5           1.8160     1.2260    -2.0210 h4         1 L15       0.155000
     21 H8           0.6840     0.7310     0.2200 ha         1 L15       0.111500
     22 H15          3.0160    -2.8550    -0.0130 ha         1 L15       0.111500
     23 H9           0.7940     0.6360     2.6590 ha         1 L15       0.110500
     24 H111         1.8460    -0.2680     4.6600 hc         1 L15       0.053200
     25 H112         2.9150    -1.6600     4.5780 hc         1 L15       0.053200
     26 H14          3.0830    -2.9660     2.4220 ha         1 L15       0.110500
     27 H121        -0.1200    -1.8070     4.3460 h1         1 L15       0.030700
     28 H122         0.9790    -3.1740     4.3570 h1         1 L15       0.030700
     29 H131         0.1650    -2.8840     6.5260 hn         1 L15       0.392000
     30 H132         0.6060    -1.3350     6.5900 hn         1 L15       0.392000
@<TRIPOS>BOND
     1     1     2 1   
     2     1    16 1   
     3     1    17 1   
     4     1    18 1   
     5     2     3 2   
     6     2     6 1   
     7     3     4 1   
     8     4     5 1   
     9     4    19 1   
    10     5     6 2   
    11     5    20 1   
    12     6     7 1   
    13     7     8 ar  
    14     7    15 ar  
    15     8     9 ar  
    16     8    21 1   
    17     9    10 ar  
    18     9    23 1   
    19    10    11 1   
    20    10    14 ar  
    21    11    12 1   
    22    11    24 1   
    23    11    25 1   
    24    12    13 1   
    25    12    27 1   
    26    12    28 1   
    27    13    29 1   
    28    13    30 1   
    29    14    15 ar  
    30    14    26 1   
    31    15    22 1   
@<TRIPOS>SUBSTRUCTURE
     1 L15         1 TEMP              0 ****  ****    0 ROOT
