@<TRIPOS>MOLECULE
L15
   30    31     1     0     0
SMALL
No Charge or Current Charge


@<TRIPOS>ATOM
      1 C1           1.9700    -3.4800    -2.4660 c3         1 L15      -0.121400
      2 C2           1.8110    -1.9950    -2.6470 cc         1 L15       0.272300
      3 N3           1.7350    -1.4610    -3.8510 nd         1 L15      -0.527800
      4 N4           1.5550    -0.1070    -3.5850 na         1 L15      -0.001200
      5 C5           1.5230     0.1690    -2.2150 cd         1 L15      -0.158000
      6 C6           1.6690    -1.0460    -1.6020 cc         1 L15      -0.156000
      7 C7           1.7630    -1.1380    -0.1270 ca         1 L15       0.013000
      8 C8           1.2770    -0.0860     0.6860 ca         1 L15      -0.107000
      9 C9           1.3550    -0.1540     2.0880 ca         1 L15      -0.105500
     10 C10          1.9260    -1.2730     2.7160 ca         1 L15      -0.084300
     11 C11          2.0080    -1.3500     4.2350 c3         1 L15      -0.032100
     12 C12          0.7780    -2.0540     4.8460 c3         1 L15       0.149800
     13 N13          0.8570    -2.1310     6.3190 n8         1 L15      -0.998200
     14 C14          2.4180    -2.3220     1.9220 ca         1 L15      -0.105500
     15 C15          2.3390    -2.2540     0.5200 ca         1 L15      -0.107000
     16 H1C1         3.0060    -3.7350    -2.2180 hc         1 L15       0.048700
     17 H1C2         1.3110    -3.8540    -1.6750 hc         1 L15       0.048700
     18 H1C3         1.7100    -4.0180    -3.3860 hc         1 L15       0.048700
     19 H4           1.4690     0.5770    -4.3380 hn         1 L15       0.373000
     20 H5           1.4250     1.1760    -1.8240 h4         1 L15       0.155000
     21 H8           0.8110     0.7890     0.2440 ha         1 L15       0.111500
     22 H15          2.7620    -3.0740    -0.0460 ha         1 L15       0.111500
     23 H9           0.9640     0.6660     2.6860 ha         1 L15       0.110500
     24 H111         2.0950    -0.3420     4.6590 hc         1 L15       0.053200
     25 H112         2.9160    -1.8880     4.5350 hc         1 L15       0.053200
     26 H14          2.8710    -3.1930     2.3910 ha         1 L15       0.110500
     27 H121        -0.1340    -1.5070     4.5690 h1         1 L15       0.030700
     28 H122         0.7040    -3.0740     4.4440 h1         1 L15       0.030700
     29 H131        -0.0060    -2.5580     6.6780 hn         1 L15       0.392000
     30 H132         0.8320    -1.1790     6.7060 hn         1 L15       0.392000
@<TRIPOS>BOND
     1     1     2 1   
     2     1    16 1   
     3     1    17 1   
     4     1    18 1   
     5     2     3 2   
     6     2     6 1   
     7     3     4 1   
     8     4     5 1   
     9     4    19 1   
    10     5     6 2   
    11     5    20 1   
    12     6     7 1   
    13     7     8 ar  
    14     7    15 ar  
    15     8     9 ar  
    16     8    21 1   
    17     9    10 ar  
    18     9    23 1   
    19    10    11 1   
    20    10    14 ar  
    21    11    12 1   
    22    11    24 1   
    23    11    25 1   
    24    12    13 1   
    25    12    27 1   
    26    12    28 1   
    27    13    29 1   
    28    13    30 1   
    29    14    15 ar  
    30    14    26 1   
    31    15    22 1   
@<TRIPOS>SUBSTRUCTURE
     1 L15         1 TEMP              0 ****  ****    0 ROOT
