@<TRIPOS>MOLECULE
L18
   48    49     1     0     0
SMALL
No Charge or Current Charge


@<TRIPOS>ATOM
      1 C8         -29.7920   -30.4110    42.2720 c3         1 L18      -0.058700
      2 C9         -30.5770   -31.6690    42.7270 c3         1 L18      -0.086100
      3 C10        -28.3160   -30.4070    42.7840 c3         1 L18      -0.064400
      4 C11        -27.4430   -31.6790    42.5440 c3         1 L18      -0.014400
      5 C12        -27.2400   -32.0530    41.0570 c3         1 L18      -0.083100
      6 C15        -25.7720   -32.3590    44.3470 ca         1 L18      -0.107500
      7 C16        -24.5340   -32.2290    45.0010 ca         1 L18      -0.110500
      8 C17        -23.6040   -31.2710    44.5650 ca         1 L18      -0.113000
      9 C18        -23.9140   -30.4420    43.4750 ca         1 L18      -0.110500
     10 C19        -25.1510   -30.5710    42.8200 ca         1 L18      -0.107500
     11 C13        -26.0910   -31.5330    43.2500 ca         1 L18      -0.076300
     12 C1         -31.7450   -27.7470    38.3360 c6         1 L18       0.177800
     13 C2         -33.0960   -28.5120    38.4270 c6         1 L18      -0.070400
     14 C3         -33.1530   -29.4920    39.6280 c6         1 L18      -0.066400
     15 C5         -32.2650   -28.9720    40.7760 c6         1 L18      -0.082400
     16 C6         -30.7620   -28.8550    40.3440 c6         1 L18       0.188500
     17 C7         -29.9350   -30.1280    40.7410 c3         1 L18      -0.072400
     18 N1         -30.6170   -28.5550    38.8730 n3         1 L18      -0.731600
     19 H8         -30.2630   -29.5660    42.7890 hc         1 L18       0.039700
     20 H9C1       -30.2100   -32.5690    42.2190 hc         1 L18       0.032033
     21 H9C2       -30.4740   -31.8180    43.8080 hc         1 L18       0.032033
     22 H9C3       -31.6440   -31.5740    42.5010 hc         1 L18       0.032033
     23 H101       -27.8030   -29.5300    42.3690 hc         1 L18       0.040700
     24 H102       -28.3480   -30.2370    43.8680 hc         1 L18       0.040700
     25 H7C1       -28.9300   -30.0330    40.3230 hc         1 L18       0.049700
     26 H7C2       -30.3650   -31.0050    40.2430 hc         1 L18       0.049700
     27 H11        -27.9680   -32.5250    43.0040 hc         1 L18       0.049700
     28 H121       -26.8170   -31.2160    40.4900 hc         1 L18       0.035700
     29 H122       -26.5550   -32.9050    40.9700 hc         1 L18       0.035700
     30 H123       -28.1880   -32.3470    40.5920 hc         1 L18       0.035700
     31 H15        -26.4820   -33.1050    44.6970 ha         1 L18       0.110000
     32 H16        -24.2960   -32.8720    45.8460 ha         1 L18       0.110500
     33 H17        -22.6470   -31.1710    45.0720 ha         1 L18       0.111000
     34 H18        -23.1960   -29.6990    43.1360 ha         1 L18       0.110500
     35 H19        -25.3770   -29.9210    41.9790 ha         1 L18       0.110000
     36 H1C1       -31.5680   -27.4730    37.2850 h1         1 L18       0.027200
     37 H1C2       -31.8250   -26.8060    38.9010 h1         1 L18       0.027200
     38 H2C1       -33.9130   -27.7820    38.4970 hc         1 L18       0.040200
     39 H2C2       -33.2650   -29.0740    37.4980 hc         1 L18       0.040200
     40 H3C1       -34.1910   -29.6170    39.9660 hc         1 L18       0.041700
     41 H3C2       -32.8020   -30.4860    39.3170 hc         1 L18       0.041700
     42 H5C1       -32.6260   -27.9790    41.0800 hc         1 L18       0.041700
     43 H5C2       -32.3860   -29.6040    41.6630 hc         1 L18       0.041700
     44 H6         -30.3360   -28.0180    40.9170 h1         1 L18       0.022700
     45 H141       -29.1410   -27.0180    39.0230 h1         1 L18       0.027367
     46 H142       -28.4730   -28.6470    38.7700 h1         1 L18       0.027367
     47 H143       -29.2440   -27.7960    37.4270 h1         1 L18       0.027367
     48 C14        -29.3000   -27.9760    38.5090 c3         1 L18       0.158100
@<TRIPOS>BOND
     1     1     2 1   
     2     1     3 1   
     3     1    17 1   
     4     1    19 1   
     5     2    20 1   
     6     2    21 1   
     7     2    22 1   
     8     3     4 1   
     9     3    23 1   
    10     3    24 1   
    11     4     5 1   
    12     4    11 1   
    13     4    27 1   
    14     5    28 1   
    15     5    29 1   
    16     5    30 1   
    17     6     7 ar  
    18     6    11 ar  
    19     6    31 1   
    20     7     8 ar  
    21     7    32 1   
    22     8     9 ar  
    23     8    33 1   
    24     9    10 ar  
    25     9    34 1   
    26    10    11 ar  
    27    10    35 1   
    28    12    13 1   
    29    12    18 1   
    30    12    36 1   
    31    12    37 1   
    32    13    14 1   
    33    13    38 1   
    34    13    39 1   
    35    14    15 1   
    36    14    40 1   
    37    14    41 1   
    38    15    16 1   
    39    15    42 1   
    40    15    43 1   
    41    16    17 1   
    42    16    18 1   
    43    16    44 1   
    44    17    25 1   
    45    17    26 1   
    46    18    48 1   
    47    45    48 1   
    48    46    48 1   
    49    47    48 1   
@<TRIPOS>SUBSTRUCTURE
     1 L18         1 TEMP              0 ****  ****    0 ROOT
