@<TRIPOS>MOLECULE
L18
   48    49     1     0     0
SMALL
abcg2


@<TRIPOS>ATOM
      1 C8         -29.7740   -30.3420    42.2600 c3         1 L18      -0.058700
      2 C9         -30.5470   -31.5810    42.7050 c3         1 L18      -0.086100
      3 C10        -28.3160   -30.3710    42.7450 c3         1 L18      -0.064400
      4 C11        -27.5220   -31.6670    42.5140 c3         1 L18      -0.014400
      5 C12        -27.3850   -32.0660    41.0440 c3         1 L18      -0.083100
      6 C15        -25.8930   -32.2500    44.3510 ca         1 L18      -0.107500
      7 C16        -24.6600   -32.1370    44.9830 ca         1 L18      -0.110500
      8 C17        -23.6770   -31.3160    44.4490 ca         1 L18      -0.113000
      9 C18        -23.9390   -30.6110    43.2810 ca         1 L18      -0.110500
     10 C19        -25.1720   -30.7280    42.6540 ca         1 L18      -0.107500
     11 C13        -26.1690   -31.5510    43.1790 ca         1 L18      -0.076300
     12 C1         -31.7190   -27.8360    38.4150 c6         1 L18       0.177800
     13 C2         -32.9110   -28.7910    38.3870 c6         1 L18      -0.070400
     14 C3         -32.9530   -29.6540    39.6550 c6         1 L18      -0.066400
     15 C5         -32.1990   -28.9540    40.7750 c6         1 L18      -0.082400
     16 C6         -30.7150   -28.8040    40.4220 c6         1 L18       0.188500
     17 C7         -29.9170   -30.0720    40.7470 c3         1 L18      -0.072400
     18 N1         -30.5570   -28.4800    38.9990 n3         1 L18      -0.731600
     19 H8         -30.2230   -29.4880    42.7840 hc         1 L18       0.039700
     20 H9C1       -30.2010   -32.4820    42.1950 hc         1 L18       0.032033
     21 H9C2       -30.4490   -31.7470    43.7800 hc         1 L18       0.032033
     22 H9C3       -31.6110   -31.4800    42.4850 hc         1 L18       0.032033
     23 H101       -27.7780   -29.5300    42.2920 hc         1 L18       0.040700
     24 H102       -28.3130   -30.1800    43.8230 hc         1 L18       0.040700
     25 H7C1       -28.9270   -29.9750    40.2980 hc         1 L18       0.049700
     26 H7C2       -30.3860   -30.9240    40.2430 hc         1 L18       0.049700
     27 H11        -28.0540   -32.4760    43.0240 hc         1 L18       0.049700
     28 H121       -26.9450   -31.2690    40.4420 hc         1 L18       0.035700
     29 H122       -26.7490   -32.9460    40.9440 hc         1 L18       0.035700
     30 H123       -28.3530   -32.3070    40.6060 hc         1 L18       0.035700
     31 H15        -26.6530   -32.8970    44.7760 ha         1 L18       0.110000
     32 H16        -24.4700   -32.6920    45.8930 ha         1 L18       0.110500
     33 H17        -22.7140   -31.2290    44.9360 ha         1 L18       0.111000
     34 H18        -23.1800   -29.9670    42.8540 ha         1 L18       0.110500
     35 H19        -25.3540   -30.1720    41.7420 ha         1 L18       0.110000
     36 H1C1       -31.4670   -27.5340    37.3950 h1         1 L18       0.027200
     37 H1C2       -31.9850   -26.9050    38.9450 h1         1 L18       0.027200
     38 H2C1       -33.8280   -28.2030    38.2930 hc         1 L18       0.040200
     39 H2C2       -32.8560   -29.4260    37.5010 hc         1 L18       0.040200
     40 H3C1       -33.9830   -29.8550    39.9540 hc         1 L18       0.041700
     41 H3C2       -32.4970   -30.6290    39.4640 hc         1 L18       0.041700
     42 H5C1       -32.6420   -27.9700    40.9520 hc         1 L18       0.041700
     43 H5C2       -32.3000   -29.4930    41.7190 hc         1 L18       0.041700
     44 H6         -30.3060   -27.9840    41.0390 h1         1 L18       0.022700
     45 H141       -29.3840   -26.7060    39.1730 h1         1 L18       0.027367
     46 H142       -28.4840   -28.2250    39.1800 h1         1 L18       0.027367
     47 H143       -29.1760   -27.6310    37.6780 h1         1 L18       0.027367
     48 C14        -29.3520   -27.7230    38.7510 c3         1 L18       0.158100
@<TRIPOS>BOND
     1     1     2 1   
     2     1     3 1   
     3     1    17 1   
     4     1    19 1   
     5     2    20 1   
     6     2    21 1   
     7     2    22 1   
     8     3     4 1   
     9     3    23 1   
    10     3    24 1   
    11     4     5 1   
    12     4    11 1   
    13     4    27 1   
    14     5    28 1   
    15     5    29 1   
    16     5    30 1   
    17     6     7 ar  
    18     6    11 ar  
    19     6    31 1   
    20     7     8 ar  
    21     7    32 1   
    22     8     9 ar  
    23     8    33 1   
    24     9    10 ar  
    25     9    34 1   
    26    10    11 ar  
    27    10    35 1   
    28    12    13 1   
    29    12    18 1   
    30    12    36 1   
    31    12    37 1   
    32    13    14 1   
    33    13    38 1   
    34    13    39 1   
    35    14    15 1   
    36    14    40 1   
    37    14    41 1   
    38    15    16 1   
    39    15    42 1   
    40    15    43 1   
    41    16    17 1   
    42    16    18 1   
    43    16    44 1   
    44    17    25 1   
    45    17    26 1   
    46    18    48 1   
    47    45    48 1   
    48    46    48 1   
    49    47    48 1   
@<TRIPOS>SUBSTRUCTURE
     1 L18         1 TEMP              0 ****  ****    0 ROOT
