@<TRIPOS>MOLECULE
L19
   54    58     1     0     0
SMALL
No Charge or Current Charge


@<TRIPOS>ATOM
      1 O1           3.0830    -4.9110     0.2290 o          1 L19      -0.731500
      2 C22          3.3900    -3.7580    -0.0280 c          1 L19       0.724000
      3 O2           4.5210    -3.3130     0.0900 o          1 L19      -0.731500
      4 C21          2.2780    -2.7960    -0.4480 c3         1 L19      -0.237400
      5 C20          1.6780    -2.1460     0.8170 c3         1 L19       0.078600
      6 N1           0.5830    -1.2030     0.5160 na         1 L19      -0.051700
      7 C13          0.6750     0.1810     0.2850 cc         1 L19       0.045700
      8 C14          1.8680     1.0300     0.3270 ca         1 L19      -0.017800
      9 C15          2.2000     1.8470    -0.7740 ca         1 L19      -0.081000
     10 C16          3.3370     2.6720    -0.7320 ca         1 L19      -0.119000
     11 C17          4.1520     2.6880     0.4110 ca         1 L19      -0.113000
     12 C18          3.8300     1.8770     1.5120 ca         1 L19      -0.119000
     13 C19          2.6930     1.0510     1.4700 ca         1 L19      -0.081000
     14 C6          -0.5810     0.5880    -0.1690 cd         1 L19      -0.124400
     15 C7          -1.4720    -0.5630    -0.1520 ca         1 L19      -0.082800
     16 C8          -2.8430    -0.6950    -0.4280 ca         1 L19      -0.070000
     17 C9          -3.4410    -1.9710    -0.3070 ca         1 L19      -0.085300
     18 C23         -4.9130    -2.1260    -0.6080 cx         1 L19      -0.062400
     19 C24         -5.4760    -3.3650    -1.2700 cx         1 L19      -0.133900
     20 C25         -5.8020    -3.0690     0.1740 cx         1 L19      -0.133900
     21 C10         -2.6450    -3.0750     0.1000 ca         1 L19      -0.112000
     22 C11         -1.2760    -2.9110     0.3950 ca         1 L19      -0.096000
     23 C12         -0.7160    -1.6310     0.2640 ca         1 L19      -0.045200
     24 C5          -1.0510     1.9680    -0.4440 ca         1 L19       0.024200
     25 C4          -1.8980     2.2000    -1.5470 ca         1 L19      -0.135000
     26 C3          -2.3200     3.5030    -1.8510 ca         1 L19       0.289900
     27 N           -1.9570     4.5820    -1.1250 nb         1 L19      -0.660000
     28 C2          -1.1540     4.3730    -0.0550 ca         1 L19       0.245900
     29 C1          -0.6760     3.0940     0.3340 ca         1 L19       0.089100
     30 O            0.0710     2.9170     1.4880 os         1 L19      -0.319100
     31 C            0.5920     4.0250     2.2420 c3         1 L19       0.148900
     32 H2           2.6830    -1.9720    -1.0480 hc         1 L19       0.034700
     33 H3           1.4590    -3.3400    -0.9320 hc         1 L19       0.034700
     34 H4           1.3010    -2.9250     1.4910 h1         1 L19       0.066700
     35 H5           2.4700    -1.6140     1.3540 h1         1 L19       0.066700
     36 H6           1.5750     1.8390    -1.6640 ha         1 L19       0.120500
     37 H7           3.5840     3.2990    -1.5850 ha         1 L19       0.106000
     38 H8           5.0320     3.3280     0.4450 ha         1 L19       0.102000
     39 H9           4.4580     1.8920     2.4000 ha         1 L19       0.106000
     40 H10          2.4400     0.4440     2.3350 ha         1 L19       0.120500
     41 H11         -3.4410     0.1650    -0.7150 ha         1 L19       0.104000
     42 H12         -5.3720    -1.1850    -0.9050 hc         1 L19       0.070700
     43 H13         -6.2650    -3.2280    -2.0050 hc         1 L19       0.067200
     44 H14         -4.8000    -4.1900    -1.4800 hc         1 L19       0.067200
     45 H15         -5.3460    -3.6940     0.9370 hc         1 L19       0.067200
     46 H16         -6.8090    -2.7330     0.4070 hc         1 L19       0.067200
     47 H17         -3.0850    -4.0630     0.2000 ha         1 L19       0.101000
     48 H18         -0.6800    -3.7610     0.7180 ha         1 L19       0.130000
     49 H19         -2.1960     1.3850    -2.1990 ha         1 L19       0.130000
     50 H20         -2.9610     3.6920    -2.7120 h4         1 L19       0.010100
     51 H21         -0.9070     5.2680     0.5140 h4         1 L19       0.011100
     52 H22          1.1870     3.6590     3.0880 h1         1 L19       0.037700
     53 H23          1.2420     4.6480     1.6140 h1         1 L19       0.037700
     54 H24         -0.2200     4.6460     2.6390 h1         1 L19       0.037700
@<TRIPOS>BOND
     1     1     2 1   
     2     2     3 1   
     3     2     4 1   
     4     4     5 1   
     5     4    32 1   
     6     4    33 1   
     7     5     6 1   
     8     5    34 1   
     9     5    35 1   
    10     6     7 1   
    11     6    23 1   
    12     7     8 1   
    13     7    14 2   
    14     8     9 ar  
    15     8    13 ar  
    16     9    10 ar  
    17     9    36 1   
    18    10    11 ar  
    19    10    37 1   
    20    11    12 ar  
    21    11    38 1   
    22    12    13 ar  
    23    12    39 1   
    24    13    40 1   
    25    14    15 1   
    26    14    24 1   
    27    15    16 ar  
    28    15    23 ar  
    29    16    17 ar  
    30    16    41 1   
    31    17    18 1   
    32    17    21 ar  
    33    18    19 1   
    34    18    20 1   
    35    18    42 1   
    36    19    20 1   
    37    19    43 1   
    38    19    44 1   
    39    20    45 1   
    40    20    46 1   
    41    21    22 ar  
    42    21    47 1   
    43    22    23 ar  
    44    22    48 1   
    45    24    25 ar  
    46    24    29 ar  
    47    25    26 ar  
    48    25    49 1   
    49    26    27 ar  
    50    26    50 1   
    51    27    28 ar  
    52    28    29 ar  
    53    28    51 1   
    54    29    30 1   
    55    30    31 1   
    56    31    52 1   
    57    31    53 1   
    58    31    54 1   
@<TRIPOS>SUBSTRUCTURE
     1 L19         1 TEMP              0 ****  ****    0 ROOT
