@<TRIPOS>MOLECULE
L19
   54    58     1     0     0
SMALL
bcc


@<TRIPOS>ATOM
      1 O1           3.7480    -3.8180     0.7410 o          1 L19      -0.836800
      2 C22          3.3840    -3.5130    -0.4120 c          1 L19       0.934600
      3 O2           3.8770    -3.9190    -1.4820 o          1 L19      -0.836800
      4 C21          2.2000    -2.5370    -0.5420 c3         1 L19      -0.237400
      5 C20          1.6460    -2.0530     0.7880 c3         1 L19       0.049300
      6 N1           0.5100    -1.1600     0.6160 na         1 L19      -0.022400
      7 C13          0.5660     0.1810     0.3370 cc         1 L19       0.045700
      8 C14          1.8040     0.9610     0.4460 ca         1 L19      -0.017800
      9 C15          2.2450     1.7090    -0.6430 ca         1 L19      -0.099000
     10 C16          3.3840     2.4950    -0.5440 ca         1 L19      -0.137000
     11 C17          4.1010     2.5370     0.6440 ca         1 L19      -0.131000
     12 C18          3.6700     1.7910     1.7340 ca         1 L19      -0.137000
     13 C19          2.5280     1.0120     1.6380 ca         1 L19      -0.099000
     14 C6          -0.6760     0.6260    -0.0660 cd         1 L19      -0.124400
     15 C7          -1.5420    -0.5140    -0.0540 ca         1 L19      -0.082800
     16 C8          -2.8990    -0.7050    -0.3370 ca         1 L19      -0.088000
     17 C9          -3.4570    -1.9670    -0.2280 ca         1 L19      -0.085300
     18 C23         -4.8950    -2.1610    -0.5460 cx         1 L19      -0.062400
     19 C24         -5.3850    -3.4180    -1.2130 cx         1 L19      -0.133900
     20 C25         -5.7410    -3.1480     0.2110 cx         1 L19      -0.133900
     21 C10         -2.6440    -3.0460     0.1790 ca         1 L19      -0.130000
     22 C11         -1.3070    -2.8840     0.4790 ca         1 L19      -0.114000
     23 C12         -0.7640    -1.6050     0.3690 ca         1 L19      -0.045200
     24 C5          -1.0500     1.9840    -0.4560 ca         1 L19       0.024200
     25 C4          -1.7700     2.2180    -1.6230 ca         1 L19      -0.218300
     26 C3          -2.1020     3.5130    -1.9900 ca         1 L19       0.355200
     27 N           -1.7580     4.5720    -1.2730 nb         1 L19      -0.660000
     28 C2          -1.0830     4.3720    -0.1460 ca         1 L19       0.311200
     29 C1          -0.7210     3.1090     0.3170 ca         1 L19       0.023800
     30 O           -0.0840     2.8930     1.4760 os         1 L19      -0.295900
     31 C            0.5830     3.9730     2.0980 c3         1 L19       0.125700
     32 H2           2.5180    -1.6760    -1.1400 hc         1 L19       0.034700
     33 H3           1.4070    -3.0210    -1.1210 hc         1 L19       0.034700
     34 H4           1.3160    -2.8910     1.4020 h1         1 L19       0.066700
     35 H5           2.4130    -1.5400     1.3610 h1         1 L19       0.066700
     36 H6           1.6940     1.6740    -1.5750 ha         1 L19       0.138500
     37 H7           3.7140     3.0720    -1.3980 ha         1 L19       0.124000
     38 H8           4.9910     3.1480     0.7210 ha         1 L19       0.120000
     39 H9           4.2190     1.8260     2.6660 ha         1 L19       0.124000
     40 H10          2.1810     0.4630     2.5050 ha         1 L19       0.138500
     41 H11         -3.5140     0.1330    -0.6470 ha         1 L19       0.122000
     42 H12         -5.4000    -1.2490    -0.8450 hc         1 L19       0.070700
     43 H13         -6.1560    -3.3240    -1.9670 hc         1 L19       0.067200
     44 H14         -4.6560    -4.1940    -1.4170 hc         1 L19       0.067200
     45 H15         -5.2580    -3.7410     0.9780 hc         1 L19       0.067200
     46 H16         -6.7590    -2.8640     0.4450 hc         1 L19       0.067200
     47 H17         -3.0720    -4.0380     0.2630 ha         1 L19       0.119000
     48 H18         -0.7130    -3.7340     0.7900 ha         1 L19       0.148000
     49 H19         -2.0470     1.3910    -2.2640 ha         1 L19       0.148000
     50 H20         -2.6550     3.6960    -2.9040 h4         1 L19       0.010100
     51 H21         -0.8260     5.2620     0.4170 h4         1 L19       0.011100
     52 H22          1.1730     3.5460     2.9050 h1         1 L19       0.037700
     53 H23          1.2560     4.4820     1.4030 h1         1 L19       0.037700
     54 H24         -0.1160     4.7010     2.5180 h1         1 L19       0.037700
@<TRIPOS>BOND
     1     1     2 1   
     2     2     3 1   
     3     2     4 1   
     4     4     5 1   
     5     4    32 1   
     6     4    33 1   
     7     5     6 1   
     8     5    34 1   
     9     5    35 1   
    10     6     7 1   
    11     6    23 1   
    12     7     8 1   
    13     7    14 2   
    14     8     9 ar  
    15     8    13 ar  
    16     9    10 ar  
    17     9    36 1   
    18    10    11 ar  
    19    10    37 1   
    20    11    12 ar  
    21    11    38 1   
    22    12    13 ar  
    23    12    39 1   
    24    13    40 1   
    25    14    15 1   
    26    14    24 1   
    27    15    16 ar  
    28    15    23 ar  
    29    16    17 ar  
    30    16    41 1   
    31    17    18 1   
    32    17    21 ar  
    33    18    19 1   
    34    18    20 1   
    35    18    42 1   
    36    19    20 1   
    37    19    43 1   
    38    19    44 1   
    39    20    45 1   
    40    20    46 1   
    41    21    22 ar  
    42    21    47 1   
    43    22    23 ar  
    44    22    48 1   
    45    24    25 ar  
    46    24    29 ar  
    47    25    26 ar  
    48    25    49 1   
    49    26    27 ar  
    50    26    50 1   
    51    27    28 ar  
    52    28    29 ar  
    53    28    51 1   
    54    29    30 1   
    55    30    31 1   
    56    31    52 1   
    57    31    53 1   
    58    31    54 1   
@<TRIPOS>SUBSTRUCTURE
     1 L19         1 TEMP              0 ****  ****    0 ROOT
