@<TRIPOS>MOLECULE
L1A
   98   101     1     0     0
SMALL
No Charge or Current Charge


@<TRIPOS>ATOM
      1 C1          -4.2200     4.2040     4.6770 ca         1 L1A      -0.102000
      2 C2          -3.2610     4.3360     3.6600 ca         1 L1A      -0.104000
      3 C3          -2.6310     3.1950     3.1330 ca         1 L1A      -0.097000
      4 C4          -2.9620     1.9120     3.6140 ca         1 L1A      -0.087300
      5 C5          -3.9170     1.7890     4.6440 ca         1 L1A      -0.097000
      6 C6          -4.5470     2.9300     5.1700 ca         1 L1A      -0.104000
      7 N1          -0.3580     0.1690     0.2210 ns         1 L1A      -0.493900
      8 C7          -1.3110    -0.4760     0.9890 c          1 L1A       0.578100
      9 C8          -2.4700     0.4340     1.5310 c3         1 L1A       0.168500
     10 C9          -2.2660     0.6720     3.0540 c3         1 L1A      -0.031100
     11 N2          -3.8260    -0.1470     1.2480 n7         1 L1A      -0.938300
     12 C10          2.0700     0.3770    -0.3120 c          1 L1A       0.589100
     13 N3           3.2420    -0.2510    -0.6700 ns         1 L1A      -0.492900
     14 C11         -2.0130    -1.2630    -2.3610 cc         1 L1A      -0.268000
     15 C12         -0.7260    -1.6910    -2.1170 cd         1 L1A       0.321300
     16 C13          0.4620    -0.7890    -1.9350 c3         1 L1A      -0.111700
     17 C14          0.7890    -0.4940    -0.4470 c3         1 L1A       0.028700
     18 S1          -3.1090    -2.6090    -2.4930 ss         1 L1A      -0.078400
     19 C15         -1.7250    -3.6310    -2.2300 cc         1 L1A       0.689300
     20 N5          -0.5620    -3.0670    -2.0640 nd         1 L1A      -0.728000
     21 O2           2.0510     1.5390     0.0780 o          1 L1A      -0.618100
     22 C16          4.5710     0.3780    -0.6590 c3         1 L1A       0.083700
     23 C17          5.4140    -0.1200    -1.8690 c3         1 L1A      -0.086400
     24 C18          5.2540     0.2030     0.7380 c3         1 L1A       0.117300
     25 C19          6.6180     0.9600     0.8920 c3         1 L1A       0.140300
     26 C20          7.2220     0.8470     2.3220 c3         1 L1A      -0.106400
     27 C21          8.5960     1.5460     2.5380 c3         1 L1A      -0.055700
     28 C22          9.0250     1.4680     4.0210 c3         1 L1A      -0.089100
     29 C23          9.7060     0.9820     1.6180 c3         1 L1A      -0.089100
     30 O3           5.4130    -1.2010     1.0380 oh         1 L1A      -0.654000
     31 O4           6.4450     2.3500     0.5710 oh         1 L1A      -0.650000
     32 O5          -6.6760    -1.7760    -2.2610 os         1 L1A      -0.450000
     33 C24         -7.0910    -2.1320    -0.9210 c6         1 L1A       0.154100
     34 C25         -6.1080    -1.5330     0.1220 c6         1 L1A       0.141300
     35 S2          -5.1610     0.8160     1.1890 s6         1 L1A       1.288200
     36 N6          -5.9560    -0.0540    -0.0550 n3         1 L1A      -0.723500
     37 C26         -5.6470     0.3260    -1.4680 c6         1 L1A       0.141300
     38 C27         -6.6300    -0.3440    -2.4700 c6         1 L1A       0.154100
     39 O6          -5.9480     0.6760     2.4130 o          1 L1A      -0.540500
     40 O7          -4.7670     2.1140     0.6450 o          1 L1A      -0.540500
     41 C28          5.6630    -0.5330    -4.3930 c6         1 L1A      -0.071400
     42 C29          4.7440     0.0230    -3.2750 c6         1 L1A      -0.055700
     43 C30          4.3460     1.4930    -3.5980 c6         1 L1A      -0.047200
     44 C31          3.9540     1.6900    -5.0580 c2         1 L1A      -0.211200
     45 C32          4.2210     0.7940    -6.0240 c2         1 L1A      -0.230200
     46 C33          4.9480    -0.5180    -5.7670 c6         1 L1A      -0.039200
     47 H1          -4.7070     5.0880     5.0850 ha         1 L1A       0.111000
     48 H2          -3.0030     5.3230     3.2810 ha         1 L1A       0.112000
     49 H3          -1.8840     3.3130     2.3520 ha         1 L1A       0.109500
     50 H5          -4.1790     0.8070     5.0320 ha         1 L1A       0.109500
     51 H6          -5.2870     2.8260     5.9600 ha         1 L1A       0.112000
     52 HN1         -0.4380     1.1770     0.1310 hn         1 L1A       0.335500
     53 H8          -2.3500     1.3940     1.0100 h1         1 L1A       0.078700
     54 H91         -2.5750    -0.2300     3.5970 hc         1 L1A       0.060200
     55 H92         -1.1910     0.7750     3.2470 hc         1 L1A       0.060200
     56 HN2         -3.8770    -0.4860     0.2940 hn         1 L1A       0.514000
     57 HN3          3.1750    -1.2230    -0.9490 hn         1 L1A       0.329500
     58 H11         -2.3750    -0.2490    -2.4670 h4         1 L1A       0.159000
     59 H131         0.2880     0.1590    -2.4580 hc         1 L1A       0.064700
     60 H132         1.3350    -1.2440    -2.4180 hc         1 L1A       0.064700
     61 H14          1.0050    -1.4440     0.0620 h1         1 L1A       0.105700
     62 HN41        -2.5620    -5.3970    -2.6950 hn         1 L1A       0.473000
     63 HN42        -0.8760    -5.4280    -2.3340 hn         1 L1A       0.473000
     64 H16          4.4230     1.4570    -0.8010 h1         1 L1A       0.100700
     65 H171         6.3670     0.4230    -1.8800 hc         1 L1A       0.044200
     66 H172         5.6700    -1.1740    -1.7080 hc         1 L1A       0.044200
     67 H18          4.5680     0.6430     1.4770 h1         1 L1A       0.078700
     68 H19          7.3280     0.5080     0.1870 h1         1 L1A       0.071700
     69 H201         7.3360    -0.2140     2.5760 hc         1 L1A       0.050700
     70 H202         6.4980     1.2540     3.0400 hc         1 L1A       0.050700
     71 H21          8.4820     2.6110     2.2980 hc         1 L1A       0.052700
     72 H221         9.9660     2.0070     4.1820 hc         1 L1A       0.034033
     73 H222         8.2640     1.9190     4.6700 hc         1 L1A       0.034033
     74 H223         9.1680     0.4260     4.3330 hc         1 L1A       0.034033
     75 H231         9.4740     1.1600     0.5620 hc         1 L1A       0.034033
     76 H232        10.6660     1.4670     1.8300 hc         1 L1A       0.034033
     77 H233         9.8280    -0.0970     1.7690 hc         1 L1A       0.034033
     78 HO3          5.9790    -1.5910     0.3380 ho         1 L1A       0.443000
     79 HO4          6.0720     2.7890     1.3660 ho         1 L1A       0.444000
     80 H242        -8.1060    -1.7500    -0.7420 h1         1 L1A       0.057200
     81 H251        -5.1440    -2.0520     0.0170 h1         1 L1A       0.064950
     82 H252        -6.4880    -1.7630     1.1280 h1         1 L1A       0.064950
     83 H261        -5.7210     1.4150    -1.6050 h1         1 L1A       0.064950
     84 H262        -4.6210     0.0380    -1.7340 h1         1 L1A       0.064950
     85 H271        -6.3110    -0.1400    -3.5020 h1         1 L1A       0.057200
     86 H272        -7.6390     0.0720    -2.3360 h1         1 L1A       0.057200
     87 H281         6.5800     0.0710    -4.4510 hc         1 L1A       0.038700
     88 H282         5.9800    -1.5590    -4.1570 hc         1 L1A       0.038700
     89 H29          3.8310    -0.5890    -3.2620 hc         1 L1A       0.049700
     90 H301         3.5050     1.7960    -2.9590 hc         1 L1A       0.057200
     91 H302         5.1770     2.1700    -3.3600 hc         1 L1A       0.057200
     92 H31          3.4310     2.6190    -5.2940 ha         1 L1A       0.172000
     93 H32          3.9170     0.9840    -7.0550 ha         1 L1A       0.170000
     94 H331         5.6830    -0.6980    -6.5630 hc         1 L1A       0.045200
     95 H332         4.2250    -1.3440    -5.8180 hc         1 L1A       0.045200
     96 O1          -1.2580    -1.6840     1.1930 o          1 L1A      -0.590100
     97 N4          -1.7710    -4.9670    -2.2310 nv         1 L1A      -1.033900
     98 H241        -7.1150    -3.2260    -0.8300 h1         1 L1A       0.057200
@<TRIPOS>BOND
     1     1     2 ar  
     2     1     6 ar  
     3     1    47 1   
     4     2     3 ar  
     5     2    48 1   
     6     3     4 ar  
     7     3    49 1   
     8     4     5 ar  
     9     4    10 1   
    10     5     6 ar  
    11     5    50 1   
    12     6    51 1   
    13     7     8 1   
    14     7    17 1   
    15     7    52 1   
    16     8     9 1   
    17     8    96 2   
    18     9    10 1   
    19     9    11 1   
    20     9    53 1   
    21    10    54 1   
    22    10    55 1   
    23    11    35 1   
    24    11    56 1   
    25    12    13 1   
    26    12    17 1   
    27    12    21 2   
    28    13    22 1   
    29    13    57 1   
    30    14    15 2   
    31    14    18 1   
    32    14    58 1   
    33    15    16 1   
    34    15    20 1   
    35    16    17 1   
    36    16    59 1   
    37    16    60 1   
    38    17    61 1   
    39    18    19 1   
    40    19    20 2   
    41    19    97 1   
    42    22    23 1   
    43    22    24 1   
    44    22    64 1   
    45    23    42 1   
    46    23    65 1   
    47    23    66 1   
    48    24    25 1   
    49    24    30 1   
    50    24    67 1   
    51    25    26 1   
    52    25    31 1   
    53    25    68 1   
    54    26    27 1   
    55    26    69 1   
    56    26    70 1   
    57    27    28 1   
    58    27    29 1   
    59    27    71 1   
    60    28    72 1   
    61    28    73 1   
    62    28    74 1   
    63    29    75 1   
    64    29    76 1   
    65    29    77 1   
    66    30    78 1   
    67    31    79 1   
    68    32    33 1   
    69    32    38 1   
    70    33    34 1   
    71    33    80 1   
    72    33    98 1   
    73    34    36 1   
    74    34    81 1   
    75    34    82 1   
    76    35    36 1   
    77    35    39 2   
    78    35    40 2   
    79    36    37 1   
    80    37    38 1   
    81    37    83 1   
    82    37    84 1   
    83    38    85 1   
    84    38    86 1   
    85    41    42 1   
    86    41    46 1   
    87    41    87 1   
    88    41    88 1   
    89    42    43 1   
    90    42    89 1   
    91    43    44 1   
    92    43    90 1   
    93    43    91 1   
    94    44    45 2   
    95    44    92 1   
    96    45    46 1   
    97    45    93 1   
    98    46    94 1   
    99    46    95 1   
   100    62    97 1   
   101    63    97 1   
@<TRIPOS>SUBSTRUCTURE
     1 L1A         1 TEMP              0 ****  ****    0 ROOT
