@<TRIPOS>MOLECULE
L1A
   98   101     1     0     0
SMALL
abcg2


@<TRIPOS>ATOM
      1 C1          -4.1500     4.5380     4.1870 ca         1 L1A      -0.102000
      2 C2          -3.2160     4.7830     3.1880 ca         1 L1A      -0.104000
      3 C3          -2.4310     3.7470     2.7030 ca         1 L1A      -0.097000
      4 C4          -2.5650     2.4550     3.2050 ca         1 L1A      -0.087300
      5 C5          -3.5010     2.2200     4.2080 ca         1 L1A      -0.097000
      6 C6          -4.2880     3.2540     4.6970 ca         1 L1A      -0.104000
      7 N1          -0.6140     0.0740    -0.0170 ns         1 L1A      -0.493900
      8 C7          -1.5190    -0.3940     0.8550 c          1 L1A       0.578100
      9 C8          -2.4440     0.6830     1.4240 c3         1 L1A       0.168500
     10 C9          -1.7460     1.3340     2.6360 c3         1 L1A      -0.031100
     11 N2          -3.7020     0.1030     1.8270 n7         1 L1A      -0.938300
     12 C10          1.7360     0.2560    -0.5050 c          1 L1A       0.589100
     13 N3           2.9100    -0.3830    -0.4850 ns         1 L1A      -0.492900
     14 C11         -2.0140    -2.1480    -2.4080 cc         1 L1A      -0.268000
     15 C12         -0.7600    -2.2820    -1.9220 cd         1 L1A       0.321300
     16 C13          0.2820    -1.2180    -1.9230 c3         1 L1A      -0.111700
     17 C14          0.5190    -0.6700    -0.5010 c3         1 L1A       0.028700
     18 S1          -2.9060    -3.6060    -2.1380 ss         1 L1A      -0.078400
     19 C15         -1.4860    -4.2880    -1.3930 cc         1 L1A       0.689300
     20 N5          -0.4630    -3.4940    -1.3530 nd         1 L1A      -0.728000
     21 O2           1.6040     1.4700    -0.5620 o          1 L1A      -0.618100
     22 C16          4.2100     0.2620    -0.5480 c3         1 L1A       0.083700
     23 C17          4.9050    -0.0770    -1.8680 c3         1 L1A      -0.086400
     24 C18          5.0180    -0.1450     0.6950 c3         1 L1A       0.117300
     25 C19          6.3050     0.6740     0.8810 c3         1 L1A       0.140300
     26 C20          7.0170     0.3010     2.1790 c3         1 L1A      -0.106400
     27 C21          8.2680     1.1250     2.4910 c3         1 L1A      -0.055700
     28 C22          8.8580     0.6710     3.8230 c3         1 L1A      -0.089100
     29 C23          9.3140     1.0370     1.3850 c3         1 L1A      -0.089100
     30 O3           5.2680    -1.5340     0.7140 oh         1 L1A      -0.654000
     31 O4           6.0230     2.0560     0.8090 oh         1 L1A      -0.650000
     32 O5          -5.3160    -1.6830    -2.5880 os         1 L1A      -0.450000
     33 C24         -6.0230    -2.1750    -1.4730 c6         1 L1A       0.154100
     34 C25         -5.4600    -1.6510    -0.1660 c6         1 L1A       0.141300
     35 S2          -5.1620     0.5590     1.2510 s6         1 L1A       1.288200
     36 N6          -5.4620    -0.1870    -0.2050 n3         1 L1A      -0.723500
     37 C26         -4.7380     0.3300    -1.3670 c6         1 L1A       0.141300
     38 C27         -5.3460    -0.2750    -2.6190 c6         1 L1A       0.154100
     39 O6          -6.1350     0.0230     2.1810 o          1 L1A      -0.540500
     40 O7          -5.0960     1.9780     0.9740 o          1 L1A      -0.540500
     41 C28          4.8910    -0.0260    -4.3800 c6         1 L1A      -0.071400
     42 C29          4.2290     0.5000    -3.1080 c6         1 L1A      -0.055700
     43 C30          4.2300     2.0290    -3.1140 c6         1 L1A      -0.047200
     44 C31          3.8520     2.5990    -4.4480 c2         1 L1A      -0.211200
     45 C32          3.7930     1.8830    -5.5680 c2         1 L1A      -0.230200
     46 C33          4.1410     0.4260    -5.6270 c6         1 L1A      -0.039200
     47 H1          -4.7640     5.3440     4.5690 ha         1 L1A       0.111000
     48 H2          -3.0980     5.7820     2.7890 ha         1 L1A       0.112000
     49 H3          -1.7040     3.9440     1.9230 ha         1 L1A       0.109500
     50 H5          -3.6130     1.2220     4.6120 ha         1 L1A       0.109500
     51 H6          -5.0100     3.0580     5.4800 ha         1 L1A       0.112000
     52 HN1         -0.6380     1.0510    -0.2720 hn         1 L1A       0.335500
     53 H8          -2.6260     1.4560     0.6750 h1         1 L1A       0.078700
     54 H91         -1.5770     0.5620     3.3910 hc         1 L1A       0.060200
     55 H92         -0.7650     1.7020     2.3260 hc         1 L1A       0.060200
     56 HN2         -3.6610    -0.8190     2.2460 hn         1 L1A       0.514000
     57 HN3          2.9080    -1.3880    -0.3960 hn         1 L1A       0.329500
     58 H11         -2.4540    -1.3000    -2.9030 h4         1 L1A       0.159000
     59 H131        -0.0110    -0.3960    -2.5790 hc         1 L1A       0.064700
     60 H132         1.2180    -1.6270    -2.3110 hc         1 L1A       0.064700
     61 H14          0.6970    -1.5090     0.1760 h1         1 L1A       0.105700
     62 HN41        -2.1830    -6.1920    -1.2120 hn         1 L1A       0.473000
     63 HN42        -0.6100    -5.9390    -0.6620 hn         1 L1A       0.473000
     64 H16          4.0350     1.3340    -0.4870 h1         1 L1A       0.100700
     65 H171         5.9390     0.2810    -1.8380 hc         1 L1A       0.044200
     66 H172         4.9620    -1.1660    -1.9780 hc         1 L1A       0.044200
     67 H18          4.3780     0.0440     1.5660 h1         1 L1A       0.078700
     68 H19          6.9790     0.4750     0.0400 h1         1 L1A       0.071700
     69 H201         7.2930    -0.7560     2.1400 hc         1 L1A       0.050700
     70 H202         6.3090     0.3990     3.0130 hc         1 L1A       0.050700
     71 H21          7.9730     2.1740     2.5970 hc         1 L1A       0.052700
     72 H221         9.7200     1.2800     4.1040 hc         1 L1A       0.034033
     73 H222         8.1270     0.7410     4.6300 hc         1 L1A       0.034033
     74 H223         9.1940    -0.3680     3.7690 hc         1 L1A       0.034033
     75 H231         8.9700     1.4830     0.4510 hc         1 L1A       0.034033
     76 H232        10.2270     1.5600     1.6740 hc         1 L1A       0.034033
     77 H233         9.5820    -0.0030     1.1780 hc         1 L1A       0.034033
     78 HO3          5.9330    -1.7430     0.0490 ho         1 L1A       0.443000
     79 HO4          5.5050     2.3010     1.5840 ho         1 L1A       0.444000
     80 H242        -7.0860    -1.9080    -1.5440 h1         1 L1A       0.057200
     81 H251        -4.4460    -2.0400    -0.0050 h1         1 L1A       0.064950
     82 H252        -6.0950    -2.0030     0.6460 h1         1 L1A       0.064950
     83 H261        -4.8380     1.4120    -1.4190 h1         1 L1A       0.064950
     84 H262        -3.6690     0.0850    -1.3190 h1         1 L1A       0.064950
     85 H271        -4.7770     0.0500    -3.4900 h1         1 L1A       0.057200
     86 H272        -6.3770     0.0860    -2.7320 h1         1 L1A       0.057200
     87 H281         5.9250     0.3340    -4.4230 hc         1 L1A       0.038700
     88 H282         4.9420    -1.1180    -4.3520 hc         1 L1A       0.038700
     89 H29          3.1830     0.1650    -3.1240 hc         1 L1A       0.049700
     90 H301         3.5390     2.4100    -2.3570 hc         1 L1A       0.057200
     91 H302         5.2200     2.4050    -2.8240 hc         1 L1A       0.057200
     92 H31          3.6100     3.6570    -4.4800 ha         1 L1A       0.172000
     93 H32          3.4850     2.3610    -6.4920 ha         1 L1A       0.170000
     94 H331         4.7380     0.2260    -6.5210 hc         1 L1A       0.045200
     95 H332         3.2250    -0.1640    -5.7500 hc         1 L1A       0.045200
     96 O1          -1.5810    -1.5480     1.2400 o          1 L1A      -0.590100
     97 N4          -1.5120    -5.5320    -0.8540 nv         1 L1A      -1.033900
     98 H241        -5.9450    -3.2630    -1.4870 h1         1 L1A       0.057200
@<TRIPOS>BOND
     1     1     2 ar  
     2     1     6 ar  
     3     1    47 1   
     4     2     3 ar  
     5     2    48 1   
     6     3     4 ar  
     7     3    49 1   
     8     4     5 ar  
     9     4    10 1   
    10     5     6 ar  
    11     5    50 1   
    12     6    51 1   
    13     7     8 1   
    14     7    17 1   
    15     7    52 1   
    16     8     9 1   
    17     8    96 2   
    18     9    10 1   
    19     9    11 1   
    20     9    53 1   
    21    10    54 1   
    22    10    55 1   
    23    11    35 1   
    24    11    56 1   
    25    12    13 1   
    26    12    17 1   
    27    12    21 2   
    28    13    22 1   
    29    13    57 1   
    30    14    15 2   
    31    14    18 1   
    32    14    58 1   
    33    15    16 1   
    34    15    20 1   
    35    16    17 1   
    36    16    59 1   
    37    16    60 1   
    38    17    61 1   
    39    18    19 1   
    40    19    20 2   
    41    19    97 1   
    42    22    23 1   
    43    22    24 1   
    44    22    64 1   
    45    23    42 1   
    46    23    65 1   
    47    23    66 1   
    48    24    25 1   
    49    24    30 1   
    50    24    67 1   
    51    25    26 1   
    52    25    31 1   
    53    25    68 1   
    54    26    27 1   
    55    26    69 1   
    56    26    70 1   
    57    27    28 1   
    58    27    29 1   
    59    27    71 1   
    60    28    72 1   
    61    28    73 1   
    62    28    74 1   
    63    29    75 1   
    64    29    76 1   
    65    29    77 1   
    66    30    78 1   
    67    31    79 1   
    68    32    33 1   
    69    32    38 1   
    70    33    34 1   
    71    33    80 1   
    72    33    98 1   
    73    34    36 1   
    74    34    81 1   
    75    34    82 1   
    76    35    36 1   
    77    35    39 2   
    78    35    40 2   
    79    36    37 1   
    80    37    38 1   
    81    37    83 1   
    82    37    84 1   
    83    38    85 1   
    84    38    86 1   
    85    41    42 1   
    86    41    46 1   
    87    41    87 1   
    88    41    88 1   
    89    42    43 1   
    90    42    89 1   
    91    43    44 1   
    92    43    90 1   
    93    43    91 1   
    94    44    45 2   
    95    44    92 1   
    96    45    46 1   
    97    45    93 1   
    98    46    94 1   
    99    46    95 1   
   100    62    97 1   
   101    63    97 1   
@<TRIPOS>SUBSTRUCTURE
     1 L1A         1 TEMP              0 ****  ****    0 ROOT
