@<TRIPOS>MOLECULE
L1B
   49    51     1     0     0
SMALL
No Charge or Current Charge


@<TRIPOS>ATOM
      1 C1           2.0100    -1.1400     0.5850 cc         1 L1B       0.612600
      2 N1           3.0600    -1.9570     0.5740 nc         1 L1B      -0.834000
      3 C2           4.1590    -1.4090     0.1840 cd         1 L1B       0.917200
      4 N2           4.3890    -0.1680    -0.2760 nd         1 L1B      -0.784000
      5 C3           3.3350     0.6200    -0.2570 cc         1 L1B       0.592600
      6 C4           2.0430     0.2150     0.2090 cc         1 L1B      -0.532200
      7 N3           0.9450    -1.7150     1.1520 nv         1 L1B      -0.612700
      8 N4           5.1760    -2.2080     0.1500 nv         1 L1B      -1.017200
      9 C5           3.5660     1.9650    -0.9310 c3         1 L1B      -0.124700
     10 C6           2.7330     2.2000    -2.2140 c3         1 L1B      -0.085100
     11 C7           0.9350     2.4210     0.7210 ca         1 L1B      -0.086000
     12 C8          -0.2050     3.2300     0.7870 ca         1 L1B      -0.061000
     13 C9          -1.4560     2.7220     0.4050 ca         1 L1B      -0.090000
     14 C10         -1.6000     1.3990    -0.0540 ca         1 L1B      -0.019000
     15 C11         -0.4250     0.5980    -0.0950 ca         1 L1B      -0.166000
     16 C12          0.8480     1.0890     0.2760 ca         1 L1B       0.120000
     17 C13         -2.6260     3.5460     0.5000 cc         1 L1B       0.047000
     18 C14         -3.8820     2.9980     0.1490 cc         1 L1B      -0.170000
     19 C15         -4.0160     1.6970    -0.3100 cd         1 L1B      -0.009000
     20 N5          -2.8660     0.8770    -0.4800 na         1 L1B       0.101000
     21 C16         -2.9880    -0.4750    -1.0720 c3         1 L1B       0.031600
     22 C17         -3.1030    -1.6010    -0.0170 c3         1 L1B      -0.105400
     23 C18         -3.1930    -3.0010    -0.6480 c3         1 L1B       0.165600
     24 O1          -3.3000    -3.9510     0.4230 os         1 L1B      -0.450000
     25 C19         -3.3890    -5.3220    -0.0010 c3         1 L1B       0.140900
     26 HN31         1.1000    -2.6110     1.5870 hn         1 L1B       0.331500
     27 HN32         0.2390    -1.1100     1.5430 hn         1 L1B       0.331500
     28 HN41         5.8610    -1.9170    -0.5290 hn         1 L1B       0.516000
     29 HN42         4.8940    -3.1740     0.1050 hn         1 L1B       0.516000
     30 H51          4.6200     2.0400    -1.2290 hc         1 L1B       0.062700
     31 H52          3.4420     2.7970    -0.2370 hc         1 L1B       0.062700
     32 H61          2.9020     1.3910    -2.9350 hc         1 L1B       0.041700
     33 H62          1.6600     2.2500    -2.0020 hc         1 L1B       0.041700
     34 H63          3.0250     3.1450    -2.6880 hc         1 L1B       0.041700
     35 H8          -0.1170     4.2480     1.1610 ha         1 L1B       0.147000
     36 H11         -0.4710    -0.4110    -0.4860 ha         1 L1B       0.152000
     37 H13         -2.5840     4.5730     0.8510 ha         1 L1B       0.160000
     38 H14         -4.7610     3.6300     0.2480 ha         1 L1B       0.173000
     39 H15         -4.9690     1.2600    -0.5860 h4         1 L1B       0.175000
     40 H161        -3.8880    -0.4920    -1.7010 h1         1 L1B       0.089200
     41 H162        -2.1460    -0.6600    -1.7500 h1         1 L1B       0.089200
     42 H171        -2.2400    -1.5700     0.6570 hc         1 L1B       0.074200
     43 H172        -3.9950    -1.4280     0.5980 hc         1 L1B       0.074200
     44 H181        -4.0710    -3.0550    -1.3050 h1         1 L1B       0.029200
     45 H182        -2.2940    -3.1930    -1.2500 h1         1 L1B       0.029200
     46 H191        -4.2740    -5.4800    -0.6320 h1         1 L1B       0.042033
     47 H192        -2.4980    -5.6130    -0.5730 h1         1 L1B       0.042033
     48 H193        -3.4680    -5.9870     0.8680 h1         1 L1B       0.042033
     49 H7           1.8660     2.8180     1.1080 ha         1 L1B       0.155000
@<TRIPOS>BOND
     1     1     2 1   
     2     1     6 1   
     3     1     7 2   
     4     2     3 2   
     5     3     4 1   
     6     3     8 1   
     7     4     5 2   
     8     5     6 1   
     9     5     9 1   
    10     6    16 2   
    11     7    26 1   
    12     7    27 1   
    13     8    28 1   
    14     8    29 1   
    15     9    10 1   
    16     9    30 1   
    17     9    31 1   
    18    10    32 1   
    19    10    33 1   
    20    10    34 1   
    21    11    12 ar  
    22    11    16 ar  
    23    11    49 1   
    24    12    13 ar  
    25    12    35 1   
    26    13    14 ar  
    27    13    17 2   
    28    14    15 ar  
    29    14    20 1   
    30    15    16 ar  
    31    15    36 1   
    32    17    18 1   
    33    17    37 1   
    34    18    19 2   
    35    18    38 1   
    36    19    20 1   
    37    19    39 1   
    38    20    21 1   
    39    21    22 1   
    40    21    40 1   
    41    21    41 1   
    42    22    23 1   
    43    22    42 1   
    44    22    43 1   
    45    23    24 1   
    46    23    44 1   
    47    23    45 1   
    48    24    25 1   
    49    25    46 1   
    50    25    47 1   
    51    25    48 1   
@<TRIPOS>SUBSTRUCTURE
     1 L1B         1 TEMP              0 ****  ****    0 ROOT
