@<TRIPOS>MOLECULE
L1B
   49    51     1     0     0
SMALL
abcg2


@<TRIPOS>ATOM
      1 C1           2.0220    -1.0250     0.9570 cc         1 L1B       0.612600
      2 N1           3.0850    -1.8140     0.8790 nc         1 L1B      -0.834000
      3 C2           4.1150    -1.3770     0.1550 cd         1 L1B       0.917200
      4 N2           4.1770    -0.2180    -0.5050 nd         1 L1B      -0.784000
      5 C3           3.1110     0.5740    -0.4280 cc         1 L1B       0.592600
      6 C4           1.9790     0.2320     0.3030 cc         1 L1B      -0.532200
      7 N3           0.9780    -1.4850     1.6760 nv         1 L1B      -0.612700
      8 N4           5.1930    -2.1740     0.0910 nv         1 L1B      -1.017200
      9 C5           3.1710     1.8150    -1.2720 c3         1 L1B      -0.124700
     10 C6           2.6830     1.5180    -2.6900 c3         1 L1B      -0.085100
     11 C7           0.8400     2.3400     1.0540 ca         1 L1B      -0.086000
     12 C8          -0.2750     3.1170     1.1730 ca         1 L1B      -0.061000
     13 C9          -1.5150     2.6760     0.6630 ca         1 L1B      -0.090000
     14 C10         -1.5770     1.4210     0.0150 ca         1 L1B      -0.019000
     15 C11         -0.4150     0.6480    -0.1230 ca         1 L1B      -0.166000
     16 C12          0.7830     1.0880     0.3960 ca         1 L1B       0.120000
     17 C13         -2.6840     3.4450     0.7910 cc         1 L1B       0.047000
     18 C14         -3.8690     2.9740     0.2910 cc         1 L1B      -0.170000
     19 C15         -3.8850     1.7330    -0.3310 cd         1 L1B      -0.009000
     20 N5          -2.7930     0.9930    -0.4640 na         1 L1B       0.101000
     21 C16         -2.9250    -0.3350    -1.0890 c3         1 L1B       0.031600
     22 C17         -2.9460    -1.4500    -0.0540 c3         1 L1B      -0.105400
     23 C18         -3.0830    -2.7940    -0.7470 c3         1 L1B       0.165600
     24 O1          -3.0940    -3.8020     0.2280 os         1 L1B      -0.450000
     25 C19         -3.2170    -5.0870    -0.3290 c3         1 L1B       0.140900
     26 HN31         1.1260    -2.3040     2.2410 hn         1 L1B       0.331500
     27 HN32         0.2570    -0.8590     1.9910 hn         1 L1B       0.331500
     28 HN41         5.9860    -1.9110    -0.4650 hn         1 L1B       0.516000
     29 HN42         5.1950    -3.0670     0.5490 hn         1 L1B       0.516000
     30 H51          4.2060     2.1580    -1.3070 hc         1 L1B       0.062700
     31 H52          2.5800     2.6230    -0.8440 hc         1 L1B       0.062700
     32 H61          3.2710     0.7200    -3.1440 hc         1 L1B       0.041700
     33 H62          1.6370     1.2070    -2.6930 hc         1 L1B       0.041700
     34 H63          2.7710     2.4020    -3.3200 hc         1 L1B       0.041700
     35 H8          -0.2290     4.0740     1.6750 ha         1 L1B       0.147000
     36 H11         -0.4360    -0.3010    -0.6390 ha         1 L1B       0.152000
     37 H13         -2.6390     4.4050     1.2890 ha         1 L1B       0.160000
     38 H14         -4.7890     3.5320     0.3680 ha         1 L1B       0.173000
     39 H15         -4.7990     1.3190    -0.7300 h4         1 L1B       0.175000
     40 H161        -3.8510    -0.3230    -1.6590 h1         1 L1B       0.089200
     41 H162        -2.1190    -0.4570    -1.8100 h1         1 L1B       0.089200
     42 H171        -2.0320    -1.4430     0.5450 hc         1 L1B       0.074200
     43 H172        -3.7850    -1.2950     0.6290 hc         1 L1B       0.074200
     44 H181        -4.0070    -2.8160    -1.3440 h1         1 L1B       0.029200
     45 H182        -2.2500    -2.9380    -1.4500 h1         1 L1B       0.029200
     46 H191        -4.1510    -5.2030    -0.8910 h1         1 L1B       0.042033
     47 H192        -2.3870    -5.3220    -1.0060 h1         1 L1B       0.042033
     48 H193        -3.2120    -5.8090     0.4870 h1         1 L1B       0.042033
     49 H7           1.7800     2.6730     1.4730 ha         1 L1B       0.155000
@<TRIPOS>BOND
     1     1     2 1   
     2     1     6 1   
     3     1     7 2   
     4     2     3 2   
     5     3     4 1   
     6     3     8 1   
     7     4     5 2   
     8     5     6 1   
     9     5     9 1   
    10     6    16 2   
    11     7    26 1   
    12     7    27 1   
    13     8    28 1   
    14     8    29 1   
    15     9    10 1   
    16     9    30 1   
    17     9    31 1   
    18    10    32 1   
    19    10    33 1   
    20    10    34 1   
    21    11    12 ar  
    22    11    16 ar  
    23    11    49 1   
    24    12    13 ar  
    25    12    35 1   
    26    13    14 ar  
    27    13    17 2   
    28    14    15 ar  
    29    14    20 1   
    30    15    16 ar  
    31    15    36 1   
    32    17    18 1   
    33    17    37 1   
    34    18    19 2   
    35    18    38 1   
    36    19    20 1   
    37    19    39 1   
    38    20    21 1   
    39    21    22 1   
    40    21    40 1   
    41    21    41 1   
    42    22    23 1   
    43    22    42 1   
    44    22    43 1   
    45    23    24 1   
    46    23    44 1   
    47    23    45 1   
    48    24    25 1   
    49    25    46 1   
    50    25    47 1   
    51    25    48 1   
@<TRIPOS>SUBSTRUCTURE
     1 L1B         1 TEMP              0 ****  ****    0 ROOT
