@<TRIPOS>MOLECULE
L1C
   62    66     1     0     0
SMALL
abcg2


@<TRIPOS>ATOM
      1 F2           4.2630    -7.3020    -0.4840 f          1 L1C      -0.165000
      2 C14          3.6320    -6.1240    -0.4240 ca         1 L1C       0.210000
      3 C15          4.0420    -5.2020     0.5180 ca         1 L1C      -0.199000
      4 C16          3.3770    -3.9930     0.5600 ca         1 L1C       0.205000
      5 F1           3.7810    -3.1150     1.4920 f          1 L1C      -0.173000
      6 C17          2.3300    -3.6570    -0.2930 ca         1 L1C      -0.173300
      7 C18          1.9570    -4.6330    -1.2120 ca         1 L1C      -0.044000
      8 C13          2.5940    -5.8630    -1.2940 ca         1 L1C      -0.169000
      9 C8           1.5950    -2.3270    -0.2230 c5         1 L1C       0.233300
     10 O3           0.5760    -2.2600    -1.1880 oh         1 L1C      -0.644000
     11 C11          2.5190    -1.0990    -0.3470 c5         1 L1C       0.079000
     12 N2           1.8640    -0.0870     0.4640 n          1 L1C      -0.417800
     13 C12          2.2240     1.2160     0.5790 c          1 L1C       0.682100
     14 O2           1.6170     1.9900     1.3060 o          1 L1C      -0.612100
     15 N3           3.3210     1.5740    -0.1610 ns         1 L1C      -0.156000
     16 C2           3.9220     2.8290    -0.2460 ca         1 L1C       0.002000
     17 C7           3.7150     3.8750     0.6550 ca         1 L1C      -0.145000
     18 C6           4.3850     5.0790     0.4900 ca         1 L1C      -0.074000
     19 C5           5.2680     5.2510    -0.5610 ca         1 L1C       0.089000
     20 CL1          6.0990     6.7620    -0.7550 cl         1 L1C      -0.206000
     21 C4           5.4930     4.2200    -1.4590 ca         1 L1C      -0.074000
     22 C3           4.8220     3.0220    -1.2980 ca         1 L1C      -0.145000
     23 C10          0.6860    -0.5700     1.1340 c5         1 L1C       0.043700
     24 C9           0.8820    -2.0880     1.1100 c5         1 L1C      -0.079400
     25 C1          -0.5830    -0.0880     0.4210 c          1 L1C       0.611100
     26 O1          -0.5590     0.6110    -0.5620 o          1 L1C      -0.503100
     27 N1          -1.7170    -0.5110     1.0600 ns         1 L1C      -0.328900
     28 C26         -3.0470    -0.2790     0.7450 ca         1 L1C       0.502900
     29 C27         -4.0150    -0.7080     1.6640 ca         1 L1C      -0.215000
     30 C28         -5.3410    -0.4970     1.3690 ca         1 L1C      -0.015000
     31 C29         -5.6660     0.1370     0.1740 ca         1 L1C      -0.076400
     32 C30         -4.6390     0.5260    -0.6620 ca         1 L1C       0.384900
     33 N6          -3.3570     0.3160    -0.3920 nb         1 L1C      -0.673000
     34 N4          -7.0180     0.3710    -0.1990 n          1 L1C      -0.188200
     35 C24         -7.5320    -0.3050    -1.2660 cc         1 L1C      -0.024400
     36 C23         -8.8000    -0.0990    -1.6910 cd         1 L1C      -0.300000
     37 C19         -9.5920     0.8440    -0.9940 cd         1 L1C      -0.085000
     38 C21         -9.0890     1.5220     0.0700 cc         1 L1C      -0.319200
     39 C20         -7.7430     1.3180     0.5320 c          1 L1C       0.554200
     40 O4          -7.2200     1.8960     1.4780 o          1 L1C      -0.543000
     41 H15          4.8520    -5.4110     1.2040 ha         1 L1C       0.155000
     42 H13          2.2810    -6.6010    -2.0200 ha         1 L1C       0.142000
     43 H18          1.1370    -4.4410    -1.8890 ha         1 L1C       0.134000
     44 H3           0.9550    -2.0930    -2.0580 ho         1 L1C       0.456000
     45 H111         3.5300    -1.2930     0.0130 h1         1 L1C       0.055200
     46 H112         2.6020    -0.8060    -1.3990 h1         1 L1C       0.055200
     47 H91C        -0.0430    -2.6620     1.1690 hc         1 L1C       0.076700
     48 H92C         1.5020    -2.3800     1.9550 hc         1 L1C       0.076700
     49 H10          0.6460    -0.2130     2.1670 h1         1 L1C       0.092700
     50 HA           3.6960     0.8970    -0.8050 hn         1 L1C       0.148000
     51 H7           3.0410     3.7690     1.4870 ha         1 L1C       0.131500
     52 HB           5.0010     2.2240    -2.0090 ha         1 L1C       0.131500
     53 H6           4.2120     5.8800     1.1960 ha         1 L1C       0.129000
     54 H4           6.1830     4.3430    -2.2830 ha         1 L1C       0.129000
     55 H1          -1.5750    -1.0280     1.9160 hn         1 L1C       0.150000
     56 H27         -3.7260    -1.1980     2.5850 ha         1 L1C       0.124000
     57 H28         -6.1140    -0.8250     2.0510 ha         1 L1C       0.134000
     58 H30         -4.8610     1.0280    -1.5980 h4         1 L1C       0.031100
     59 H24         -6.8660    -1.0140    -1.7370 h4         1 L1C       0.203000
     60 H23         -9.1840    -0.6500    -2.5360 ha         1 L1C       0.201000
     61 H19        -10.6110     1.0260    -1.3120 ha         1 L1C       0.186000
     62 H21         -9.6870     2.2470     0.6060 ha         1 L1C       0.209000
@<TRIPOS>BOND
     1     1     2 1   
     2     2     3 ar  
     3     2     8 ar  
     4     3     4 ar  
     5     3    41 1   
     6     4     5 1   
     7     4     6 ar  
     8     6     7 ar  
     9     6     9 1   
    10     7     8 ar  
    11     7    43 1   
    12     8    42 1   
    13     9    10 1   
    14     9    11 1   
    15     9    24 1   
    16    10    44 1   
    17    11    12 1   
    18    11    45 1   
    19    11    46 1   
    20    12    13 1   
    21    12    23 1   
    22    13    14 2   
    23    13    15 1   
    24    15    16 1   
    25    15    50 1   
    26    16    17 ar  
    27    16    22 ar  
    28    17    18 ar  
    29    17    51 1   
    30    18    19 ar  
    31    18    53 1   
    32    19    20 1   
    33    19    21 ar  
    34    21    22 ar  
    35    21    54 1   
    36    22    52 1   
    37    23    24 1   
    38    23    25 1   
    39    23    49 1   
    40    24    47 1   
    41    24    48 1   
    42    25    26 2   
    43    25    27 1   
    44    27    28 1   
    45    27    55 1   
    46    28    29 ar  
    47    28    33 ar  
    48    29    30 ar  
    49    29    56 1   
    50    30    31 ar  
    51    30    57 1   
    52    31    32 ar  
    53    31    34 1   
    54    32    33 ar  
    55    32    58 1   
    56    34    35 1   
    57    34    39 1   
    58    35    36 2   
    59    35    59 1   
    60    36    37 1   
    61    36    60 1   
    62    37    38 2   
    63    37    61 1   
    64    38    39 1   
    65    38    62 1   
    66    39    40 2   
@<TRIPOS>SUBSTRUCTURE
     1 L1C         1 TEMP              0 ****  ****    0 ROOT
