@<TRIPOS>MOLECULE
L1C
   62    66     1     0     0
SMALL
No Charge or Current Charge


@<TRIPOS>ATOM
      1 F2           4.2720    -7.2480    -0.5020 f          1 L1C      -0.165000
      2 C14          3.6310    -6.0590    -0.4900 ca         1 L1C       0.210000
      3 C15          3.9630    -5.0980     0.4670 ca         1 L1C      -0.199000
      4 C16          3.2980    -3.8630     0.4850 ca         1 L1C       0.205000
      5 F1           3.6560    -2.9890     1.4520 f          1 L1C      -0.173000
      6 C17          2.2820    -3.5520    -0.4670 ca         1 L1C      -0.173300
      7 C18          1.9600    -4.5600    -1.4170 ca         1 L1C      -0.044000
      8 C13          2.6310    -5.7950    -1.4280 ca         1 L1C      -0.169000
      9 C8           1.5160    -2.1970    -0.4830 c5         1 L1C       0.233300
     10 O3           0.6110    -2.0930    -1.5820 oh         1 L1C      -0.644000
     11 C11          2.5280    -0.9940    -0.4730 c5         1 L1C       0.079000
     12 N2           1.8730    -0.0040     0.4220 n          1 L1C      -0.417800
     13 C12          2.3260     1.3180     0.6020 c          1 L1C       0.682100
     14 O2           1.7040     2.0980     1.3120 o          1 L1C      -0.612100
     15 N3           3.5020     1.6350    -0.0650 ns         1 L1C      -0.156000
     16 C2           4.2640     2.8320    -0.1520 ca         1 L1C       0.002000
     17 C7           3.8640     4.0590     0.4250 ca         1 L1C      -0.145000
     18 C6           4.6730     5.2030     0.2930 ca         1 L1C      -0.074000
     19 C5           5.8830     5.1340    -0.4150 ca         1 L1C       0.089000
     20 Cl1          6.8900     6.5660    -0.5780 cl         1 L1C      -0.206000
     21 C4           6.2870     3.9210    -0.9930 ca         1 L1C      -0.074000
     22 C3           5.4790     2.7770    -0.8620 ca         1 L1C      -0.145000
     23 C10          0.5960    -0.4900     1.0180 c5         1 L1C       0.043700
     24 C9           0.7470    -2.0380     0.8620 c5         1 L1C      -0.079400
     25 C1          -0.6890     0.0330     0.2930 c          1 L1C       0.611100
     26 O1          -0.7320     0.7260    -0.7180 o          1 L1C      -0.503100
     27 N1          -1.7900    -0.3420     1.0410 ns         1 L1C      -0.328900
     28 C26         -3.1570    -0.1330     0.8160 ca         1 L1C       0.502900
     29 C27         -4.0620    -0.1250     1.8840 ca         1 L1C      -0.215000
     30 C28         -5.4320     0.0240     1.6210 ca         1 L1C      -0.015000
     31 C29         -5.8600     0.1780     0.2830 ca         1 L1C      -0.076400
     32 C30         -4.8650     0.0760    -0.7230 ca         1 L1C       0.384900
     33 N6          -3.5430    -0.0660    -0.4690 nb         1 L1C      -0.673000
     34 N4          -7.2790     0.2250    -0.0430 n          1 L1C      -0.188200
     35 C24         -7.7290    -0.4350    -1.1990 cc         1 L1C      -0.024400
     36 C23         -9.0310    -0.3540    -1.6530 cd         1 L1C      -0.300000
     37 C19         -9.9920     0.4200    -0.9270 cd         1 L1C      -0.085000
     38 C21         -9.5610     1.0720     0.2050 cc         1 L1C      -0.319200
     39 C20         -8.1800     1.0320     0.7060 c          1 L1C       0.554200
     40 O4          -7.8470     1.6830     1.6880 o          1 L1C      -0.543000
     41 H15          4.7340    -5.3100     1.2010 ha         1 L1C       0.155000
     42 H13          2.3700    -6.5500    -2.1650 ha         1 L1C       0.142000
     43 H18          1.1800    -4.4070    -2.1590 ha         1 L1C       0.134000
     44 H3           1.1560    -2.0670    -2.3970 ho         1 L1C       0.456000
     45 H111         3.5240    -1.2550    -0.0980 h1         1 L1C       0.055200
     46 H112         2.6650    -0.5870    -1.4840 h1         1 L1C       0.055200
     47 H91C        -0.2110    -2.5710     0.8570 hc         1 L1C       0.076700
     48 H92C         1.3020    -2.4360     1.7160 hc         1 L1C       0.076700
     49 H10          0.5170    -0.2090     2.0770 h1         1 L1C       0.092700
     50 HA           3.8940     0.8660    -0.5910 hn         1 L1C       0.148000
     51 H7           2.9330     4.1510     0.9740 ha         1 L1C       0.131500
     52 HB           5.8040     1.8430    -1.3160 ha         1 L1C       0.131500
     53 H6           4.3600     6.1450     0.7380 ha         1 L1C       0.129000
     54 H4           7.2240     3.8680    -1.5430 ha         1 L1C       0.129000
     55 H1          -1.5860    -0.8470     1.8930 hn         1 L1C       0.150000
     56 H27         -3.7060    -0.2420     2.9040 ha         1 L1C       0.124000
     57 H28         -6.1430    -0.0030     2.4430 ha         1 L1C       0.134000
     58 H30         -5.1280     0.1420    -1.7770 h4         1 L1C       0.031100
     59 H24         -6.9670    -1.0390    -1.6780 h4         1 L1C       0.203000
     60 H23         -9.3280    -0.8920    -2.5520 ha         1 L1C       0.201000
     61 H19        -11.0280     0.4910    -1.2590 ha         1 L1C       0.186000
     62 H21        -10.2370     1.6830     0.7920 ha         1 L1C       0.209000
@<TRIPOS>BOND
     1     1     2 1   
     2     2     3 ar  
     3     2     8 ar  
     4     3     4 ar  
     5     3    41 1   
     6     4     5 1   
     7     4     6 ar  
     8     6     7 ar  
     9     6     9 1   
    10     7     8 ar  
    11     7    43 1   
    12     8    42 1   
    13     9    10 1   
    14     9    11 1   
    15     9    24 1   
    16    10    44 1   
    17    11    12 1   
    18    11    45 1   
    19    11    46 1   
    20    12    13 1   
    21    12    23 1   
    22    13    14 2   
    23    13    15 1   
    24    15    16 1   
    25    15    50 1   
    26    16    17 ar  
    27    16    22 ar  
    28    17    18 ar  
    29    17    51 1   
    30    18    19 ar  
    31    18    53 1   
    32    19    20 1   
    33    19    21 ar  
    34    21    22 ar  
    35    21    54 1   
    36    22    52 1   
    37    23    24 1   
    38    23    25 1   
    39    23    49 1   
    40    24    47 1   
    41    24    48 1   
    42    25    26 2   
    43    25    27 1   
    44    27    28 1   
    45    27    55 1   
    46    28    29 ar  
    47    28    33 ar  
    48    29    30 ar  
    49    29    56 1   
    50    30    31 ar  
    51    30    57 1   
    52    31    32 ar  
    53    31    34 1   
    54    32    33 ar  
    55    32    58 1   
    56    34    35 1   
    57    34    39 1   
    58    35    36 2   
    59    35    59 1   
    60    36    37 1   
    61    36    60 1   
    62    37    38 2   
    63    37    61 1   
    64    38    39 1   
    65    38    62 1   
    66    39    40 2   
@<TRIPOS>SUBSTRUCTURE
     1 L1C         1 TEMP              0 ****  ****    0 ROOT
