@<TRIPOS>MOLECULE
L1D
   63    67     1     0     0
SMALL
No Charge or Current Charge


@<TRIPOS>ATOM
      1 C14          3.2170     6.7580     0.7980 ca         1 L1D      -0.099000
      2 C15          3.6170     5.8780    -0.2160 ca         1 L1D      -0.109000
      3 C16          3.1220     4.5630    -0.2480 ca         1 L1D      -0.098000
      4 C17          2.2190     4.0920     0.7400 ca         1 L1D      -0.118300
      5 C18          1.8200     5.0060     1.7490 ca         1 L1D      -0.098000
      6 C13          2.3160     6.3200     1.7790 ca         1 L1D      -0.109000
      7 C8           1.6660     2.6420     0.7070 c5         1 L1D       0.220300
      8 O3           0.8590     2.3290     1.8420 oh         1 L1D      -0.643000
      9 C11          2.8530     1.6270     0.5330 c5         1 L1D       0.078000
     10 N2           2.2650     0.5710    -0.3340 n          1 L1D      -0.418800
     11 C12          2.8800    -0.6680    -0.6000 c          1 L1D       0.678100
     12 O2           2.3250    -1.5000    -1.3050 o          1 L1D      -0.614100
     13 N3           4.1310    -0.8420    -0.0230 ns         1 L1D      -0.161000
     14 C2           5.0540    -1.9230    -0.0370 ca         1 L1D      -0.004000
     15 C7           4.7890    -3.1710    -0.6450 ca         1 L1D      -0.138000
     16 C6           5.7530    -4.1960    -0.6160 ca         1 L1D      -0.077000
     17 C5           6.9860    -3.9850     0.0210 ca         1 L1D       0.093000
     18 Cl1          8.1890    -5.2670     0.0560 cl         1 L1D      -0.205000
     19 C4           7.2580    -2.7500     0.6300 ca         1 L1D      -0.077000
     20 C3           6.2940    -1.7260     0.6010 ca         1 L1D      -0.138000
     21 C10          0.9050     0.9070    -0.8420 c5         1 L1D       0.047700
     22 C9           0.8690     2.4550    -0.6160 c5         1 L1D      -0.079400
     23 C1          -0.2610     0.1860    -0.0830 c          1 L1D       0.614100
     24 O1          -0.1560    -0.5770     0.8740 o          1 L1D      -0.553100
     25 N1          -1.4560     0.4950    -0.7250 ns         1 L1D      -0.151000
     26 C26         -2.8060     0.1220    -0.4640 ca         1 L1D      -0.046000
     27 C27         -3.7950     0.5060    -1.3900 ca         1 L1D       0.125000
     28 C28         -5.1440     0.1750    -1.1900 ca         1 L1D      -0.124000
     29 C29         -5.5430    -0.5870    -0.0690 ca         1 L1D       0.022600
     30 C30         -4.5580    -0.9210     0.8860 ca         1 L1D      -0.077000
     31 C31         -3.2060    -0.5870     0.6890 ca         1 L1D      -0.090000
     32 N4          -6.9460    -0.8420     0.2020 n          1 L1D      -0.199200
     33 C24         -7.8930     0.1280    -0.1640 cc         1 L1D      -0.022400
     34 C23         -9.2550    -0.0680    -0.0520 cd         1 L1D      -0.302000
     35 C19         -9.7550    -1.3040     0.4710 cd         1 L1D      -0.085000
     36 C21         -8.8350    -2.2620     0.8310 cc         1 L1D      -0.320200
     37 C20         -7.3800    -2.1000     0.7020 c          1 L1D       0.556200
     38 O4          -6.6160    -3.0140     0.9860 o          1 L1D      -0.541000
     39 F1          -3.4490     1.2070    -2.4940 f          1 L1D      -0.182000
     40 H14          3.6000     7.7760     0.8220 ha         1 L1D       0.118000
     41 H15          4.3100     6.2150    -0.9840 ha         1 L1D       0.117000
     42 H13          1.9970     7.0030     2.5640 ha         1 L1D       0.117000
     43 H16          3.4470     3.9150    -1.0580 ha         1 L1D       0.118000
     44 H18          1.1140     4.7120     2.5220 ha         1 L1D       0.118000
     45 H3           1.4350     2.4250     2.6300 ho         1 L1D       0.454000
     46 H111         3.7330     2.0650     0.0480 h1         1 L1D       0.052700
     47 H112         3.1750     1.2250     1.5030 h1         1 L1D       0.052700
     48 H91C        -0.1430     2.8710    -0.5560 hc         1 L1D       0.075700
     49 H92C         1.3540     2.9560    -1.4610 hc         1 L1D       0.075700
     50 H10          0.8050     0.6650    -1.9090 h1         1 L1D       0.094700
     51 HA           4.4480    -0.0460     0.5140 hn         1 L1D       0.149000
     52 H7           3.8450    -3.3720    -1.1410 ha         1 L1D       0.129000
     53 HB           6.5170    -0.7740     1.0780 ha         1 L1D       0.129000
     54 H6           5.5440    -5.1540    -1.0850 ha         1 L1D       0.129500
     55 H4           8.2130    -2.5880     1.1240 ha         1 L1D       0.129500
     56 H1          -1.3530     1.1060    -1.5250 hn         1 L1D       0.160000
     57 H31         -2.4910    -0.8720     1.4550 ha         1 L1D       0.152000
     58 H28         -5.8670     0.4820    -1.9400 ha         1 L1D       0.141000
     59 H30         -4.8360    -1.4290     1.8060 ha         1 L1D       0.136000
     60 H24         -7.4460     1.0550    -0.5080 h4         1 L1D       0.204000
     61 H23         -9.9450     0.7210    -0.3440 ha         1 L1D       0.201000
     62 H19        -10.8250    -1.4810     0.5790 ha         1 L1D       0.186000
     63 H21         -9.1500    -3.2230     1.2220 ha         1 L1D       0.209000
@<TRIPOS>BOND
     1     1     2 ar  
     2     1     6 ar  
     3     1    40 1   
     4     2     3 ar  
     5     2    41 1   
     6     3     4 ar  
     7     3    43 1   
     8     4     5 ar  
     9     4     7 1   
    10     5     6 ar  
    11     5    44 1   
    12     6    42 1   
    13     7     8 1   
    14     7     9 1   
    15     7    22 1   
    16     8    45 1   
    17     9    10 1   
    18     9    46 1   
    19     9    47 1   
    20    10    11 1   
    21    10    21 1   
    22    11    12 2   
    23    11    13 1   
    24    13    14 1   
    25    13    51 1   
    26    14    15 ar  
    27    14    20 ar  
    28    15    16 ar  
    29    15    52 1   
    30    16    17 ar  
    31    16    54 1   
    32    17    18 1   
    33    17    19 ar  
    34    19    20 ar  
    35    19    55 1   
    36    20    53 1   
    37    21    22 1   
    38    21    23 1   
    39    21    50 1   
    40    22    48 1   
    41    22    49 1   
    42    23    24 2   
    43    23    25 1   
    44    25    26 1   
    45    25    56 1   
    46    26    27 ar  
    47    26    31 ar  
    48    27    28 ar  
    49    27    39 1   
    50    28    29 ar  
    51    28    58 1   
    52    29    30 ar  
    53    29    32 1   
    54    30    31 ar  
    55    30    59 1   
    56    31    57 1   
    57    32    33 1   
    58    32    37 1   
    59    33    34 2   
    60    33    60 1   
    61    34    35 1   
    62    34    61 1   
    63    35    36 2   
    64    35    62 1   
    65    36    37 1   
    66    36    63 1   
    67    37    38 2   
@<TRIPOS>SUBSTRUCTURE
     1 L1D         1 TEMP              0 ****  ****    0 ROOT
