@<TRIPOS>MOLECULE
L1D
   63    67     1     0     0
SMALL
bcc


@<TRIPOS>ATOM
      1 C14          3.0400     6.8290     0.4810 ca         1 L1D      -0.117000
      2 C15          3.6470     5.9040    -0.3600 ca         1 L1D      -0.127000
      3 C16          3.1760     4.6010    -0.4170 ca         1 L1D      -0.116000
      4 C17          2.0930     4.1940     0.3620 ca         1 L1D      -0.118300
      5 C18          1.4860     5.1310     1.1920 ca         1 L1D      -0.116000
      6 C13          1.9590     6.4370     1.2540 ca         1 L1D      -0.127000
      7 C8           1.5720     2.7710     0.2770 c5         1 L1D       0.197100
      8 O3           0.5300     2.5310     1.1900 oh         1 L1D      -0.580800
      9 C11          2.6810     1.7130     0.4340 c5         1 L1D       0.078000
     10 N2           2.2220     0.5980    -0.3770 n          1 L1D      -0.485800
     11 C12          2.8220    -0.6100    -0.5070 c          1 L1D       0.812100
     12 O2           2.3950    -1.4700    -1.2640 o          1 L1D      -0.614100
     13 N3           3.9500    -0.7750     0.2590 ns         1 L1D      -0.487100
     14 C2           4.7480    -1.9180     0.3160 ca         1 L1D       0.088600
     15 C7           4.9310    -2.7850    -0.7630 ca         1 L1D      -0.156000
     16 C6           5.7710    -3.8810    -0.6420 ca         1 L1D      -0.095000
     17 C5           6.4430    -4.1150     0.5470 ca         1 L1D       0.001400
     18 CL1          7.4930    -5.4890     0.6880 cl         1 L1D      -0.113400
     19 C4           6.2870    -3.2550     1.6220 ca         1 L1D      -0.095000
     20 C3           5.4380    -2.1680     1.5030 ca         1 L1D      -0.156000
     21 C10          1.0230     0.8950    -1.1150 c5         1 L1D       0.047700
     22 C9           0.9920     2.4250    -1.0950 c5         1 L1D      -0.079400
     23 C1          -0.1950     0.2340    -0.4640 c          1 L1D       0.681100
     24 O1          -0.1210    -0.4640     0.5220 o          1 L1D      -0.553100
     25 N1          -1.3540     0.4860    -1.1320 ns         1 L1D      -0.477100
     26 C26         -2.6350     0.1010    -0.7360 ca         1 L1D       0.046600
     27 C27         -3.6990     0.9590    -0.9980 ca         1 L1D       0.089900
     28 C28         -5.0020     0.6560    -0.6700 ca         1 L1D      -0.142000
     29 C29         -5.2580    -0.5450    -0.0280 ca         1 L1D       0.022600
     30 C30         -4.2250    -1.4230     0.2540 ca         1 L1D      -0.095000
     31 C31         -2.9250    -1.1070    -0.1040 ca         1 L1D      -0.108000
     32 N4          -6.5960    -0.8580     0.3530 n          1 L1D      -0.266200
     33 C24         -7.1470    -0.1920     1.4070 cc         1 L1D       0.027600
     34 C23         -8.4170    -0.4290     1.8100 cd         1 L1D      -0.252000
     35 C19         -9.1690    -1.3980     1.1020 cd         1 L1D      -0.035000
     36 C21         -8.6290    -2.0650     0.0500 cc         1 L1D      -0.270200
     37 C20         -7.2830    -1.8190    -0.3950 c          1 L1D       0.698700
     38 O4          -6.7370    -2.3710    -1.3420 o          1 L1D      -0.616500
     39 F1          -3.4390     2.1230    -1.6100 f          1 L1D      -0.146900
     40 H14          3.4080     7.8460     0.5300 ha         1 L1D       0.136000
     41 H15          4.4900     6.1960    -0.9720 ha         1 L1D       0.135000
     42 H13          1.4740     7.1470     1.9110 ha         1 L1D       0.135000
     43 H16          3.6650     3.9010    -1.0850 ha         1 L1D       0.136000
     44 H18          0.6320     4.8550     1.7950 ha         1 L1D       0.136000
     45 H3           0.8880     2.4970     2.0840 ho         1 L1D       0.415000
     46 H111         3.6470     2.0810     0.0810 h1         1 L1D       0.052700
     47 H112         2.7960     1.4480     1.4900 h1         1 L1D       0.052700
     48 H91C         0.0020     2.8600    -1.2380 hc         1 L1D       0.075700
     49 H92C         1.6350     2.8050    -1.8900 hc         1 L1D       0.075700
     50 H10          1.0920     0.5300    -2.1440 h1         1 L1D       0.094700
     51 HA           4.1330    -0.0970     0.9820 hn         1 L1D       0.315500
     52 H7           4.4340    -2.6130    -1.7040 ha         1 L1D       0.147000
     53 HB           5.3100    -1.5080     2.3520 ha         1 L1D       0.147000
     54 H6           5.9050    -4.5430    -1.4860 ha         1 L1D       0.147500
     55 H4           6.8110    -3.4300     2.5520 ha         1 L1D       0.147500
     56 H1          -1.3000     1.0990    -1.9320 hn         1 L1D       0.326500
     57 H31         -2.1350    -1.8120     0.1070 ha         1 L1D       0.170000
     58 H28         -5.7980     1.3520    -0.9030 ha         1 L1D       0.159000
     59 H30         -4.4300    -2.3600     0.7540 ha         1 L1D       0.154000
     60 H24         -6.5030     0.5250     1.8960 h4         1 L1D       0.154000
     61 H23         -8.8280     0.1100     2.6490 ha         1 L1D       0.151000
     62 H19        -10.1880    -1.6070     1.4040 ha         1 L1D       0.136000
     63 H21         -9.1990    -2.8030    -0.4970 ha         1 L1D       0.159000
@<TRIPOS>BOND
     1     1     2 ar  
     2     1     6 ar  
     3     1    40 1   
     4     2     3 ar  
     5     2    41 1   
     6     3     4 ar  
     7     3    43 1   
     8     4     5 ar  
     9     4     7 1   
    10     5     6 ar  
    11     5    44 1   
    12     6    42 1   
    13     7     8 1   
    14     7     9 1   
    15     7    22 1   
    16     8    45 1   
    17     9    10 1   
    18     9    46 1   
    19     9    47 1   
    20    10    11 1   
    21    10    21 1   
    22    11    12 2   
    23    11    13 1   
    24    13    14 1   
    25    13    51 1   
    26    14    15 ar  
    27    14    20 ar  
    28    15    16 ar  
    29    15    52 1   
    30    16    17 ar  
    31    16    54 1   
    32    17    18 1   
    33    17    19 ar  
    34    19    20 ar  
    35    19    55 1   
    36    20    53 1   
    37    21    22 1   
    38    21    23 1   
    39    21    50 1   
    40    22    48 1   
    41    22    49 1   
    42    23    24 2   
    43    23    25 1   
    44    25    26 1   
    45    25    56 1   
    46    26    27 ar  
    47    26    31 ar  
    48    27    28 ar  
    49    27    39 1   
    50    28    29 ar  
    51    28    58 1   
    52    29    30 ar  
    53    29    32 1   
    54    30    31 ar  
    55    30    59 1   
    56    31    57 1   
    57    32    33 1   
    58    32    37 1   
    59    33    34 2   
    60    33    60 1   
    61    34    35 1   
    62    34    61 1   
    63    35    36 2   
    64    35    62 1   
    65    36    37 1   
    66    36    63 1   
    67    37    38 2   
@<TRIPOS>SUBSTRUCTURE
     1 L1D         1 TEMP              0 ****  ****    0 ROOT
