@<TRIPOS>MOLECULE
L1E
   54    59     1     0     0
SMALL
abcg2


@<TRIPOS>ATOM
      1 C5           8.8930    23.1150    28.7130 ca         1 L1E       0.119900
      2 C7           6.2700    21.3220    30.5410 cp         1 L1E      -0.286500
      3 C8           5.8490    19.9980    30.6330 ca         1 L1E      -0.026000
      4 C10          3.8640    20.7170    31.7100 ca         1 L1E       0.408900
      5 C15          4.7160    24.8540    32.8690 ca         1 L1E       0.034000
      6 C17          3.3940    26.8510    32.4110 ca         1 L1E      -0.090000
      7 C21          5.3260    24.0030    33.8270 ca         1 L1E      -0.172000
      8 C22          5.0980    24.2330    35.1500 ca         1 L1E       0.364900
      9 C24          3.6970    26.0150    34.7680 ca         1 L1E       0.634900
     10 C26          2.5590    27.4200    36.5260 ca         1 L1E       0.322000
     11 C28          2.9530    27.5860    38.9070 ca         1 L1E      -0.071500
     12 C27          3.2930    27.0650    37.6640 ca         1 L1E      -0.149500
     13 C29          1.8830    28.4590    39.0270 ca         1 L1E       0.088000
     14 CL32         1.4560    29.1030    40.6020 cl         1 L1E      -0.218000
     15 C30          1.1430    28.8270    37.9110 ca         1 L1E      -0.071500
     16 C31          1.4820    28.3100    36.6730 ca         1 L1E      -0.149500
     17 N25          2.8380    26.9860    35.2300 nu         1 L1E      -0.946900
     18 N23          4.2800    25.2060    35.6270 nb         1 L1E      -0.744000
     19 C16          3.9100    25.9250    33.3400 ca         1 L1E      -0.115000
     20 C18          3.6420    26.7010    31.0690 ca         1 L1E      -0.105000
     21 C19          4.3910    25.6160    30.5710 ca         1 L1E      -0.075300
     22 C14          4.9130    24.7010    31.4700 ca         1 L1E       0.295000
     23 C12          5.3820    22.3200    31.0510 ca         1 L1E       0.656900
     24 N11          4.2150    22.0000    31.6220 nb         1 L1E      -0.736000
     25 C9           4.6360    19.6740    31.2240 ca         1 L1E      -0.233000
     26 C3           7.5680    21.6440    29.9370 cp         1 L1E       0.234500
     27 N4           7.7250    22.8160    29.2940 nb         1 L1E      -0.232000
     28 N6           9.9920    22.3720    28.6840 nb         1 L1E      -0.112000
     29 C1           9.8770    21.2140    29.3390 ca         1 L1E       0.236000
     30 C2           8.6860    20.8070    29.9820 ca         1 L1E      -0.188200
     31 N35          9.0020    19.5980    30.5600 na         1 L1E      -0.304600
     32 C34         10.3000    19.3380    30.2540 cc         1 L1E       0.442700
     33 N33         10.8640    20.2730    29.5190 nd         1 L1E      -0.634700
     34 H5           8.9360    24.0760    28.2110 h5         1 L1E       0.054100
     35 H8           6.4580    19.2120    30.2090 ha         1 L1E       0.108000
     36 H10          2.9070    20.5200    32.1820 h4         1 L1E       0.024100
     37 H17          2.8190    27.7070    32.7330 ha         1 L1E       0.109000
     38 H20          5.6680    25.6430    28.8360 hc         1 L1E       0.049033
     39 H20A         4.3770    24.4560    28.7600 hc         1 L1E       0.049033
     40 H20B         4.0130    26.1770    28.5350 hc         1 L1E       0.049033
     41 H21          5.9750    23.2000    33.5150 ha         1 L1E       0.129000
     42 H22          5.5690    23.6140    35.9050 h4         1 L1E       0.017100
     43 H28          3.5270    27.3060    39.7800 ha         1 L1E       0.128500
     44 H27          4.1190    26.3810    37.5770 ha         1 L1E       0.132500
     45 H30          0.3090    29.5100    38.0060 ha         1 L1E       0.128500
     46 H31          0.9070    28.5990    35.8010 ha         1 L1E       0.132500
     47 HN25         2.2690    27.4270    34.5270 hn         1 L1E       0.495000
     48 H18          3.2450    27.4250    30.3670 ha         1 L1E       0.117000
     49 HN13         6.4180    23.8580    30.2850 hn         1 L1E       0.538000
     50 H9           4.2970    18.6510    31.2930 ha         1 L1E       0.129000
     51 H34         10.7870    18.4390    30.6010 h5         1 L1E       0.072800
     52 HN35         8.4190    19.0220    31.1470 hn         1 L1E       0.368000
     53 N13          5.7120    23.6440    30.9830 nu         1 L1E      -0.952900
     54 C20          4.6200    25.4660    29.0940 c3         1 L1E      -0.051800
@<TRIPOS>BOND
     1     1    27 ar  
     2     1    28 ar  
     3     1    34 1   
     4     2     3 ar  
     5     2    23 ar  
     6     2    26 1   
     7     3    25 ar  
     8     3    35 1   
     9     4    24 ar  
    10     4    25 ar  
    11     4    36 1   
    12     5     7 ar  
    13     5    19 ar  
    14     5    22 ar  
    15     6    19 ar  
    16     6    20 ar  
    17     6    37 1   
    18     7     8 ar  
    19     7    41 1   
    20     8    18 ar  
    21     8    42 1   
    22     9    17 1   
    23     9    18 ar  
    24     9    19 ar  
    25    10    12 ar  
    26    10    16 ar  
    27    10    17 1   
    28    11    12 ar  
    29    11    13 ar  
    30    11    43 1   
    31    12    44 1   
    32    13    14 1   
    33    13    15 ar  
    34    15    16 ar  
    35    15    45 1   
    36    16    46 1   
    37    17    47 1   
    38    20    21 ar  
    39    20    48 1   
    40    21    22 ar  
    41    21    54 1   
    42    22    53 1   
    43    23    24 ar  
    44    23    53 1   
    45    25    50 1   
    46    26    27 ar  
    47    26    30 ar  
    48    28    29 ar  
    49    29    30 ar  
    50    29    33 1   
    51    30    31 1   
    52    31    32 1   
    53    31    52 1   
    54    32    33 2   
    55    32    51 1   
    56    38    54 1   
    57    39    54 1   
    58    40    54 1   
    59    49    53 1   
@<TRIPOS>SUBSTRUCTURE
     1 L1E         1 TEMP              0 ****  ****    0 ROOT
