@<TRIPOS>MOLECULE
L1E
   54    59     1     0     0
SMALL
No Charge or Current Charge


@<TRIPOS>ATOM
      1 C5           8.7650    23.0300    28.3630 ca         1 L1E       0.119900
      2 C7           6.2380    21.2250    30.3700 cp         1 L1E      -0.286500
      3 C8           5.8420    19.8680    30.3460 ca         1 L1E      -0.026000
      4 C10          3.8050    20.5140    31.4730 ca         1 L1E       0.408900
      5 C15          4.5830    24.7260    32.9170 ca         1 L1E       0.034000
      6 C17          3.4370    26.8250    32.4380 ca         1 L1E      -0.090000
      7 C21          5.0050    23.7950    33.8910 ca         1 L1E      -0.172000
      8 C22          4.6500    23.9840    35.2310 ca         1 L1E       0.364900
      9 C24          3.5400    25.9380    34.7510 ca         1 L1E       0.634900
     10 C26          2.5780    27.4860    36.5550 ca         1 L1E       0.322000
     11 C28          3.3570    27.9900    38.8170 ca         1 L1E      -0.071500
     12 C27          3.5760    27.4240    37.5470 ca         1 L1E      -0.149500
     13 C29          2.1390    28.6300    39.0980 ca         1 L1E       0.088000
     14 Cl32         1.8640    29.3390    40.6840 cl         1 L1E      -0.218000
     15 C30          1.1450    28.7110    38.1100 ca         1 L1E      -0.071500
     16 C31          1.3690    28.1450    36.8410 ca         1 L1E      -0.149500
     17 N25          2.7660    26.9590    35.2750 nu         1 L1E      -0.946900
     18 N23          3.9210    25.0320    35.6590 nb         1 L1E      -0.744000
     19 C16          3.8390    25.8410    33.3680 ca         1 L1E      -0.115000
     20 C18          3.7770    26.7020    31.0840 ca         1 L1E      -0.105000
     21 C19          4.5110    25.5930    30.6230 ca         1 L1E      -0.075300
     22 C14          4.9050    24.5840    31.5360 ca         1 L1E       0.295000
     23 C12          5.3460    22.1430    30.9730 ca         1 L1E       0.656900
     24 N11          4.1650    21.8120    31.5030 nb         1 L1E      -0.736000
     25 C9           4.6100    19.5150    30.9090 ca         1 L1E      -0.233000
     26 C3           7.5390    21.6410    29.7680 cp         1 L1E       0.234500
     27 N4           7.5670    22.6950    28.9180 nb         1 L1E      -0.232000
     28 N6           9.9640    22.4230    28.5740 nb         1 L1E      -0.112000
     29 C1           9.9410    21.3780    29.4250 ca         1 L1E       0.236000
     30 C2           8.7710    20.9960    29.9950 ca         1 L1E      -0.188200
     31 N35          8.9890    19.9500    30.8370 na         1 L1E      -0.304600
     32 C34         10.3540    19.6850    30.7460 cc         1 L1E       0.442700
     33 N33         10.9620    20.5450    29.8890 nd         1 L1E      -0.634700
     34 H5           8.7650    23.8780    27.6800 h5         1 L1E       0.054100
     35 H8           6.4690    19.1080    29.8820 ha         1 L1E       0.108000
     36 H10          2.8400    20.2660    31.9130 h4         1 L1E       0.024100
     37 H17          2.8780    27.7030    32.7520 ha         1 L1E       0.109000
     38 H20          5.9320    25.5570    28.9710 hc         1 L1E       0.049033
     39 H20A         4.4910    24.5550    28.7050 hc         1 L1E       0.049033
     40 H20B         4.3890    26.3110    28.5590 hc         1 L1E       0.049033
     41 H21          5.6020    22.9290    33.6270 ha         1 L1E       0.129000
     42 H22          4.9610    23.2680    35.9910 h4         1 L1E       0.017100
     43 H28          4.1310    27.9360    39.5790 ha         1 L1E       0.128500
     44 H27          4.5290    26.9500    37.3360 ha         1 L1E       0.132500
     45 H30          0.2050    29.2130    38.3260 ha         1 L1E       0.128500
     46 H31          0.5940    28.2140    36.0830 ha         1 L1E       0.132500
     47 HN25         2.1520    27.3610    34.5750 hn         1 L1E       0.495000
     48 H18          3.4660    27.4780    30.3880 ha         1 L1E       0.117000
     49 HN13         6.3200    23.7290    30.3440 hn         1 L1E       0.538000
     50 H9           4.2710    18.4830    30.9050 ha         1 L1E       0.129000
     51 H34         10.8310    18.8910    31.3090 h5         1 L1E       0.072800
     52 HN35         8.3230    19.4670    31.4270 hn         1 L1E       0.368000
     53 N13          5.6310    23.4840    31.0490 nu         1 L1E      -0.952900
     54 C20          4.8490    25.4990    29.1350 c3         1 L1E      -0.051800
@<TRIPOS>BOND
     1     1    27 ar  
     2     1    28 ar  
     3     1    34 1   
     4     2     3 ar  
     5     2    23 ar  
     6     2    26 1   
     7     3    25 ar  
     8     3    35 1   
     9     4    24 ar  
    10     4    25 ar  
    11     4    36 1   
    12     5     7 ar  
    13     5    19 ar  
    14     5    22 ar  
    15     6    19 ar  
    16     6    20 ar  
    17     6    37 1   
    18     7     8 ar  
    19     7    41 1   
    20     8    18 ar  
    21     8    42 1   
    22     9    17 1   
    23     9    18 ar  
    24     9    19 ar  
    25    10    12 ar  
    26    10    16 ar  
    27    10    17 1   
    28    11    12 ar  
    29    11    13 ar  
    30    11    43 1   
    31    12    44 1   
    32    13    14 1   
    33    13    15 ar  
    34    15    16 ar  
    35    15    45 1   
    36    16    46 1   
    37    17    47 1   
    38    20    21 ar  
    39    20    48 1   
    40    21    22 ar  
    41    21    54 1   
    42    22    53 1   
    43    23    24 ar  
    44    23    53 1   
    45    25    50 1   
    46    26    27 ar  
    47    26    30 ar  
    48    28    29 ar  
    49    29    30 ar  
    50    29    33 1   
    51    30    31 1   
    52    31    32 1   
    53    31    52 1   
    54    32    33 2   
    55    32    51 1   
    56    38    54 1   
    57    39    54 1   
    58    40    54 1   
    59    49    53 1   
@<TRIPOS>SUBSTRUCTURE
     1 L1E         1 TEMP              0 ****  ****    0 ROOT
