@<TRIPOS>MOLECULE
L1F
   46    48     1     0     0
SMALL
abcg2


@<TRIPOS>ATOM
      1 N1           5.6160     0.0880    17.6180 ns         1 L1F      -0.374100
      2 C4          13.6470     0.5590    20.6520 ca         1 L1F      -0.107000
      3 C5          12.2660     0.6380    20.8490 ca         1 L1F      -0.165000
      4 C6          11.7070     0.2520    22.0600 ca         1 L1F       0.109100
      5 C7           9.4770     0.7240    21.3300 c3         1 L1F       0.137600
      6 C8           8.0690     0.6440    21.8840 c3         1 L1F       0.108000
      7 C10          6.9250    -1.4760    21.3480 c          1 L1F       0.592300
      8 C13          6.8410    -0.5380    17.6350 c          1 L1F       0.556200
      9 C15          3.5750     0.9430    18.5800 ca         1 L1F      -0.167000
     10 C17          3.1830     0.6640    20.9510 ca         1 L1F      -0.146000
     11 O3           7.5070    -0.6520    16.6000 o          1 L1F      -0.551000
     12 C12          7.2590    -1.0280    18.9350 cc         1 L1F      -0.267200
     13 C14          4.8000     0.2800    18.7110 ca         1 L1F       0.101600
     14 C19          5.2200    -0.1990    19.9690 ca         1 L1F      -0.124800
     15 C18          4.3880     0.0070    21.0840 ca         1 L1F      -0.045000
     16 C16          2.7790     1.1310    19.6920 ca         1 L1F      -0.053000
     17 C11          6.4920    -0.8680    20.0380 cd         1 L1F      -0.032400
     18 O2           6.5930    -2.6370    21.5980 o          1 L1F      -0.584100
     19 N            7.6350    -0.7160    22.1980 n          1 L1F      -0.400800
     20 C9           8.0260    -1.3060    23.4780 c3         1 L1F       0.095300
     21 O1          10.3790     0.2940    22.3480 os         1 L1F      -0.338100
     22 C1          12.5430    -0.2230    23.0960 ca         1 L1F       0.110100
     23 O           11.9150    -0.5780    24.2490 os         1 L1F      -0.335100
     24 C           12.7110    -1.1010    25.3100 c3         1 L1F       0.146900
     25 C3          14.4660     0.0950    21.6660 ca         1 L1F      -0.107000
     26 C2          13.9140    -0.2960    22.8880 ca         1 L1F      -0.165000
     27 H1           5.3080     0.4380    16.7200 hn         1 L1F       0.329500
     28 H3          11.6350     1.0030    20.0520 ha         1 L1F       0.118000
     29 H4           9.5780     0.0860    20.4480 h1         1 L1F       0.045700
     30 H5           9.6930     1.7580    21.0430 h1         1 L1F       0.045700
     31 H6           7.9940     1.2390    22.7950 h1         1 L1F       0.066700
     32 H7           7.3930     1.0830    21.1530 h1         1 L1F       0.066700
     33 H8           3.2660     1.3020    17.6060 ha         1 L1F       0.122000
     34 H9           2.5510     0.8200    21.8140 ha         1 L1F       0.123000
     35 H10          8.2160    -1.5280    18.9760 ha         1 L1F       0.217000
     36 H11          4.7040    -0.3550    22.0530 ha         1 L1F       0.127000
     37 H12          1.8320     1.6460    19.5880 ha         1 L1F       0.119000
     38 H13          8.4240    -0.5210    24.1130 h1         1 L1F       0.051033
     39 H14          7.1590    -1.7620    23.9540 h1         1 L1F       0.051033
     40 H15          8.7920    -2.0700    23.3390 h1         1 L1F       0.051033
     41 H16         12.0180    -1.3360    26.1140 h1         1 L1F       0.041033
     42 H17         13.2340    -2.0080    24.9980 h1         1 L1F       0.041033
     43 H18         13.4380    -0.3630    25.6560 h1         1 L1F       0.041033
     44 H19         15.5370     0.0300    21.5220 ha         1 L1F       0.115000
     45 H20         14.5610    -0.6580    23.6740 ha         1 L1F       0.118000
     46 H2          14.0660     0.8640    19.7020 ha         1 L1F       0.116000
@<TRIPOS>BOND
     1     1     8 1   
     2     1    13 1   
     3     1    27 1   
     4     2     3 ar  
     5     2    25 ar  
     6     2    46 1   
     7     3     4 ar  
     8     3    28 1   
     9     4    21 1   
    10     4    22 ar  
    11     5     6 1   
    12     5    21 1   
    13     5    29 1   
    14     5    30 1   
    15     6    19 1   
    16     6    31 1   
    17     6    32 1   
    18     7    17 1   
    19     7    18 2   
    20     7    19 1   
    21     8    11 2   
    22     8    12 1   
    23     9    13 ar  
    24     9    16 ar  
    25     9    33 1   
    26    10    15 ar  
    27    10    16 ar  
    28    10    34 1   
    29    12    17 2   
    30    12    35 1   
    31    13    14 ar  
    32    14    15 ar  
    33    14    17 1   
    34    15    36 1   
    35    16    37 1   
    36    19    20 1   
    37    20    38 1   
    38    20    39 1   
    39    20    40 1   
    40    22    23 1   
    41    22    26 ar  
    42    23    24 1   
    43    24    41 1   
    44    24    42 1   
    45    24    43 1   
    46    25    26 ar  
    47    25    44 1   
    48    26    45 1   
@<TRIPOS>SUBSTRUCTURE
     1 L1F         1 TEMP              0 ****  ****    0 ROOT
