@<TRIPOS>MOLECULE
L1F
   46    48     1     0     0
SMALL
No Charge or Current Charge


@<TRIPOS>ATOM
      1 N1           4.6850    -0.1500    17.5420 ns         1 L1F      -0.374100
      2 C4          13.9180     0.9110    21.2170 ca         1 L1F      -0.107000
      3 C5          12.5220     0.7840    21.1280 ca         1 L1F      -0.165000
      4 C6          11.7690     0.4040    22.2640 ca         1 L1F       0.109100
      5 C7           9.6390     0.4410    20.9990 c3         1 L1F       0.137600
      6 C8           8.1420     0.1790    21.2920 c3         1 L1F       0.108000
      7 C10          7.1870    -2.0380    20.4830 c          1 L1F       0.592300
      8 C13          5.4230    -1.2300    17.1440 c          1 L1F       0.556200
      9 C15          3.6770     1.4140    19.1040 ca         1 L1F      -0.167000
     10 C17          4.1590     1.2260    21.4720 ca         1 L1F      -0.146000
     11 O3           5.4270    -1.6220    15.9890 o          1 L1F      -0.551000
     12 C12          6.2070    -1.8460    18.2230 cc         1 L1F      -0.267200
     13 C14          4.5600     0.3540    18.8450 ca         1 L1F       0.101600
     14 C19          5.2940    -0.2560    19.8830 ca         1 L1F      -0.124800
     15 C18          5.0440     0.1650    21.2120 ca         1 L1F      -0.045000
     16 C16          3.4860     1.8630    20.4190 ca         1 L1F      -0.053000
     17 C11          6.2190    -1.3740    19.5310 cd         1 L1F      -0.032400
     18 O2           7.5010    -3.2180    20.3590 o          1 L1F      -0.584100
     19 N            7.7840    -1.2580    21.5060 n          1 L1F      -0.400800
     20 C9           8.4240    -1.9420    22.6540 c3         1 L1F       0.095300
     21 O1          10.3930     0.2670    22.2130 os         1 L1F      -0.338100
     22 C1          12.4300     0.1510    23.4910 ca         1 L1F       0.110100
     23 O           11.6720    -0.2230    24.5890 os         1 L1F      -0.335100
     24 C           12.2560    -0.5040    25.8730 c3         1 L1F       0.146900
     25 C3          14.5730     0.6610    22.4320 ca         1 L1F      -0.107000
     26 C2          13.8370     0.2830    23.5670 ca         1 L1F      -0.165000
     27 H1           4.1410     0.3030    16.8190 hn         1 L1F       0.329500
     28 H3          12.0430     0.9840    20.1740 ha         1 L1F       0.118000
     29 H4           9.9820    -0.2490    20.2180 h1         1 L1F       0.045700
     30 H5           9.7510     1.4690    20.6290 h1         1 L1F       0.045700
     31 H6           7.8440     0.7580    22.1760 h1         1 L1F       0.066700
     32 H7           7.5890     0.5870    20.4400 h1         1 L1F       0.066700
     33 H8           3.1260     1.8800    18.2910 ha         1 L1F       0.122000
     34 H9           3.9870     1.5480    22.4970 ha         1 L1F       0.123000
     35 H10          6.8300    -2.6750    17.9060 ha         1 L1F       0.217000
     36 H11          5.5100    -0.3310    22.0580 ha         1 L1F       0.127000
     37 H12          2.7990     2.6810    20.6240 ha         1 L1F       0.119000
     38 H13          8.5620    -1.2390    23.4850 h1         1 L1F       0.051033
     39 H14          7.7900    -2.7690    22.9990 h1         1 L1F       0.051033
     40 H15          9.4010    -2.3410    22.3520 h1         1 L1F       0.051033
     41 H16         11.4760    -0.7800    26.5930 h1         1 L1F       0.041033
     42 H17         12.9660    -1.3380    25.8040 h1         1 L1F       0.041033
     43 H18         12.7820     0.3770    26.2630 h1         1 L1F       0.041033
     44 H19         15.6550     0.7620    22.4950 ha         1 L1F       0.115000
     45 H20         14.3730     0.0960    24.4930 ha         1 L1F       0.118000
     46 H2          14.4940     1.2040    20.3410 ha         1 L1F       0.116000
@<TRIPOS>BOND
     1     1     8 1   
     2     1    13 1   
     3     1    27 1   
     4     2     3 ar  
     5     2    25 ar  
     6     2    46 1   
     7     3     4 ar  
     8     3    28 1   
     9     4    21 1   
    10     4    22 ar  
    11     5     6 1   
    12     5    21 1   
    13     5    29 1   
    14     5    30 1   
    15     6    19 1   
    16     6    31 1   
    17     6    32 1   
    18     7    17 1   
    19     7    18 2   
    20     7    19 1   
    21     8    11 2   
    22     8    12 1   
    23     9    13 ar  
    24     9    16 ar  
    25     9    33 1   
    26    10    15 ar  
    27    10    16 ar  
    28    10    34 1   
    29    12    17 2   
    30    12    35 1   
    31    13    14 ar  
    32    14    15 ar  
    33    14    17 1   
    34    15    36 1   
    35    16    37 1   
    36    19    20 1   
    37    20    38 1   
    38    20    39 1   
    39    20    40 1   
    40    22    23 1   
    41    22    26 ar  
    42    23    24 1   
    43    24    41 1   
    44    24    42 1   
    45    24    43 1   
    46    25    26 ar  
    47    25    44 1   
    48    26    45 1   
@<TRIPOS>SUBSTRUCTURE
     1 L1F         1 TEMP              0 ****  ****    0 ROOT
