@<TRIPOS>MOLECULE
L1G
   83    89     1     0     0
SMALL
abcg2


@<TRIPOS>ATOM
      1 C1           3.0830    63.2690    12.5650 cc         1 L1G       0.438500
      2 C2           3.9770    64.0240    11.7400 ca         1 L1G      -0.379900
      3 C3           1.9210    63.7100    13.3440 ca         1 L1G      -0.093900
      4 N1           3.4420    61.9920    12.5570 nd         1 L1G      -0.516100
      5 C4           4.8860    63.0730    11.2370 ca         1 L1G       0.163500
      6 C5           4.2510    65.3710    11.3900 ca         1 L1G       0.454900
      7 C6           1.0290    64.6510    12.8110 ca         1 L1G      -0.169000
      8 C7           1.6710    63.1890    14.6100 ca         1 L1G      -0.082000
      9 N2           4.5300    61.8740    11.7530 na         1 L1G      -0.028100
     10 N3           5.9200    63.3240    10.4160 nb         1 L1G      -0.234000
     11 N4           5.2760    65.6290    10.5570 nb         1 L1G      -0.313000
     12 N5           3.5540    66.4210    11.8480 nv         1 L1G      -1.077900
     13 C8          -0.0660    65.0770    13.5430 ca         1 L1G       0.079100
     14 C9           0.5690    63.6030    15.3490 ca         1 L1G      -0.112000
     15 C10          5.1810    60.5850    11.5390 c6         1 L1G       0.109300
     16 C11          6.0270    64.6120    10.1190 ca         1 L1G       0.193900
     17 C12         -0.3070    64.5580    14.8370 ca         1 L1G      -0.034000
     18 O1          -0.9760    65.9840    13.1000 os         1 L1G      -0.373100
     19 C13          5.8350    60.0780    12.8250 c6         1 L1G      -0.086400
     20 C14          4.2090    59.5560    10.9640 c6         1 L1G      -0.086400
     21 N6          -1.4300    65.0590    15.4980 ns         1 L1G      -0.130000
     22 C15         -0.7380    66.6360    11.8510 c3         1 L1G       0.155900
     23 C16          6.5310    58.7390    12.5870 c6         1 L1G      -0.086900
     24 C17          4.9100    58.2150    10.7390 c6         1 L1G      -0.086900
     25 C18         -1.8790    64.7950    16.7600 c          1 L1G       0.639300
     26 C19          5.5470    57.6970    12.0300 c6         1 L1G       0.186500
     27 C20         -3.1470    65.4790    17.0900 cc         1 L1G      -0.138300
     28 O2          -1.3120    64.0390    17.5460 o          1 L1G      -0.593100
     29 N7           6.0910    56.3420    11.8600 n3         1 L1G      -0.737600
     30 N8          -3.5300    65.7340    18.3990 na         1 L1G      -0.061700
     31 C21         -4.1470    65.8860    16.2300 cd         1 L1G      -0.194200
     32 C22          7.2640    56.2350    10.9960 c6         1 L1G       0.171800
     33 C23          6.3400    55.6580    13.1240 c6         1 L1G       0.171800
     34 C24         -4.7800    66.3040    18.3810 ca         1 L1G      -0.033200
     35 C25         -2.7400    65.5370    19.6060 c3         1 L1G       0.067900
     36 C26         -5.2020    66.4120    17.0270 ca         1 L1G      -0.111800
     37 C27          7.5930    54.7720    10.7450 c6         1 L1G       0.161300
     38 C28          6.6740    54.1960    12.8780 c6         1 L1G       0.161300
     39 C29         -5.5880    66.7400    19.4370 ca         1 L1G      -0.127000
     40 C30         -6.4590    66.9650    16.7370 ca         1 L1G      -0.054000
     41 N9           7.8370    54.0740    12.0040 n3         1 L1G      -0.720600
     42 C31         -6.8190    67.2840    19.1180 ca         1 L1G      -0.084000
     43 C32         -7.2550    67.3960    17.7810 ca         1 L1G      -0.142000
     44 C33          8.1930    52.6810    11.7830 c3         1 L1G       0.152100
     45 H6           1.1790    65.0190    11.8070 ha         1 L1G       0.125000
     46 H7           2.3520    62.4620    15.0320 ha         1 L1G       0.133000
     47 H5N1         3.8570    67.3490    11.6000 hn         1 L1G       0.504500
     48 H5N2         2.8370    66.3180    12.5450 hn         1 L1G       0.504500
     49 H9           0.3940    63.2050    16.3340 ha         1 L1G       0.155000
     50 H10          5.9610    60.7890    10.8030 h1         1 L1G       0.083700
     51 H11          6.8330    64.8850     9.4440 h5         1 L1G       0.047100
     52 H131         5.0630    59.9650    13.5920 hc         1 L1G       0.057700
     53 H132         6.5460    60.8230    13.1900 hc         1 L1G       0.057700
     54 H141         3.7940    59.9310    10.0250 hc         1 L1G       0.057700
     55 H142         3.3770    59.4280    11.6610 hc         1 L1G       0.057700
     56 HA          -1.9450    65.7490    14.9710 hn         1 L1G       0.176000
     57 H151        -0.7690    65.9200    11.0270 h1         1 L1G       0.044700
     58 H152         0.2290    67.1450    11.8610 h1         1 L1G       0.044700
     59 H153        -1.5380    67.3620    11.7380 h1         1 L1G       0.044700
     60 H161         6.9730    58.3870    13.5200 hc         1 L1G       0.048950
     61 H162         7.3530    58.8820    11.8780 hc         1 L1G       0.048950
     62 H171         5.6740    58.3390     9.9670 hc         1 L1G       0.048950
     63 H172         4.1950    57.4770    10.3700 hc         1 L1G       0.048950
     64 H19          4.7410    57.5860    12.7650 h1         1 L1G       0.056700
     65 H21         -4.1440    65.7780    15.1570 ha         1 L1G       0.207000
     66 H221         8.1480    56.7220    11.4390 h1         1 L1G       0.038200
     67 H222         7.0620    56.7210    10.0420 h1         1 L1G       0.038200
     68 H231         5.4420    55.7260    13.7420 h1         1 L1G       0.038200
     69 H232         7.1680    56.1190    13.6860 h1         1 L1G       0.038200
     70 H251        -2.8860    64.5350    20.0130 h1         1 L1G       0.057367
     71 H252        -3.0470    66.2710    20.3490 h1         1 L1G       0.057367
     72 H253        -1.6870    65.6750    19.3880 h1         1 L1G       0.057367
     73 H271         8.4880    54.6970    10.1230 h1         1 L1G       0.037950
     74 H272         6.7600    54.3020    10.1920 h1         1 L1G       0.037950
     75 H281         5.7950    53.6920    12.4370 h1         1 L1G       0.037950
     76 H282         6.8970    53.7060    13.8280 h1         1 L1G       0.037950
     77 H29         -5.2700    66.6540    20.4670 ha         1 L1G       0.117000
     78 H30         -6.7950    67.0520    15.7110 ha         1 L1G       0.115000
     79 H31         -7.4670    67.6270    19.9150 ha         1 L1G       0.112000
     80 H32         -8.2270    67.8250    17.5770 ha         1 L1G       0.113000
     81 H331         7.3800    52.1150    11.2970 h1         1 L1G       0.030700
     82 H332         8.4190    52.2000    12.7360 h1         1 L1G       0.030700
     83 H333         9.0760    52.6200    11.1460 h1         1 L1G       0.030700
@<TRIPOS>BOND
     1     1     2 1   
     2     1     3 1   
     3     1     4 2   
     4     2     5 ar  
     5     2     6 ar  
     6     3     7 ar  
     7     3     8 ar  
     8     4     9 1   
     9     5     9 1   
    10     5    10 ar  
    11     6    11 ar  
    12     6    12 1   
    13     7    13 ar  
    14     7    45 1   
    15     8    14 ar  
    16     8    46 1   
    17     9    15 1   
    18    10    16 ar  
    19    11    16 ar  
    20    12    47 1   
    21    12    48 1   
    22    13    17 ar  
    23    13    18 1   
    24    14    17 ar  
    25    14    49 1   
    26    15    19 1   
    27    15    20 1   
    28    15    50 1   
    29    16    51 1   
    30    17    21 1   
    31    18    22 1   
    32    19    23 1   
    33    19    52 1   
    34    19    53 1   
    35    20    24 1   
    36    20    54 1   
    37    20    55 1   
    38    21    25 1   
    39    21    56 1   
    40    22    57 1   
    41    22    58 1   
    42    22    59 1   
    43    23    26 1   
    44    23    60 1   
    45    23    61 1   
    46    24    26 1   
    47    24    62 1   
    48    24    63 1   
    49    25    27 1   
    50    25    28 2   
    51    26    29 1   
    52    26    64 1   
    53    27    30 1   
    54    27    31 2   
    55    29    32 1   
    56    29    33 1   
    57    30    34 1   
    58    30    35 1   
    59    31    36 1   
    60    31    65 1   
    61    32    37 1   
    62    32    66 1   
    63    32    67 1   
    64    33    38 1   
    65    33    68 1   
    66    33    69 1   
    67    34    36 ar  
    68    34    39 ar  
    69    35    70 1   
    70    35    71 1   
    71    35    72 1   
    72    36    40 ar  
    73    37    41 1   
    74    37    73 1   
    75    37    74 1   
    76    38    41 1   
    77    38    75 1   
    78    38    76 1   
    79    39    42 ar  
    80    39    77 1   
    81    40    43 ar  
    82    40    78 1   
    83    41    44 1   
    84    42    43 ar  
    85    42    79 1   
    86    43    80 1   
    87    44    81 1   
    88    44    82 1   
    89    44    83 1   
@<TRIPOS>SUBSTRUCTURE
     1 L1G         1 TEMP              0 ****  ****    0 ROOT
