@<TRIPOS>MOLECULE
L1G
   83    89     1     0     0
SMALL
No Charge or Current Charge


@<TRIPOS>ATOM
      1 C1           3.0060    63.0920    12.7540 cc         1 L1G       0.438500
      2 C2           3.8610    63.8280    11.8520 ca         1 L1G      -0.379900
      3 C3           1.9050    63.6530    13.5480 ca         1 L1G      -0.093900
      4 N1           3.3290    61.7940    12.7980 nd         1 L1G      -0.516100
      5 C4           4.7080    62.9130    11.2920 ca         1 L1G       0.163500
      6 C5           4.0280    65.1770    11.5570 ca         1 L1G       0.454900
      7 C6           0.9190    64.4630    12.9490 ca         1 L1G      -0.169000
      8 C7           1.7590    63.2940    14.9010 ca         1 L1G      -0.082000
      9 N2           4.3640    61.7040    11.8700 na         1 L1G      -0.028100
     10 N3           5.6680    63.2740    10.4190 nb         1 L1G      -0.234000
     11 N4           4.9700    65.5760    10.6910 nb         1 L1G      -0.313000
     12 N5           3.3170    66.1680    12.1330 nv         1 L1G      -1.077900
     13 C8          -0.1640    64.9600    13.7070 ca         1 L1G       0.079100
     14 C9           0.6850    63.7830    15.6620 ca         1 L1G      -0.112000
     15 C10          5.0700    60.4320    11.5650 c6         1 L1G       0.109300
     16 C11          5.7390    64.5990    10.1510 ca         1 L1G       0.193900
     17 C12         -0.2820    64.6280    15.0740 ca         1 L1G      -0.034000
     18 O1          -1.1360    65.7720    13.1470 os         1 L1G      -0.373100
     19 C13          5.8470    59.9110    12.8050 c6         1 L1G      -0.086400
     20 C14          4.0880    59.3520    11.0350 c6         1 L1G      -0.086400
     21 N6          -1.3960    65.1600    15.7850 ns         1 L1G      -0.130000
     22 C15         -1.1030    66.1790    11.7660 c3         1 L1G       0.155900
     23 C16          6.5840    58.5830    12.4920 c6         1 L1G      -0.086900
     24 C17          4.8330    58.0310    10.7180 c6         1 L1G      -0.086900
     25 C18         -1.8030    65.0710    17.1080 c          1 L1G       0.639300
     26 C19          5.5930    57.4970    11.9670 c6         1 L1G       0.186500
     27 C20         -3.0730    65.8080    17.3870 cc         1 L1G      -0.138300
     28 O2          -1.1900    64.4510    17.9700 o          1 L1G      -0.593100
     29 N7           6.2160    56.1600    11.7110 n3         1 L1G      -0.737600
     30 N8          -3.7990    65.9610    18.5960 na         1 L1G      -0.061700
     31 C21         -3.8330    66.5190    16.4530 cd         1 L1G      -0.194200
     32 C22          7.3200    56.1540    10.6920 c6         1 L1G       0.171800
     33 C23          6.6720    55.4770    12.9640 c6         1 L1G       0.171800
     34 C24         -4.9520    66.7140    18.3850 ca         1 L1G      -0.033200
     35 C25         -3.4530    65.4340    19.9290 c3         1 L1G       0.067900
     36 C26         -5.0040    67.0830    17.0700 ca         1 L1G      -0.111800
     37 C27          7.8640    54.7130    10.4240 c6         1 L1G       0.161300
     38 C28          7.2120    54.0360    12.6870 c6         1 L1G       0.161300
     39 C29         -5.9670    67.0900    19.2820 ca         1 L1G      -0.127000
     40 C30         -6.0470    67.8530    16.5410 ca         1 L1G      -0.054000
     41 N9           8.3130    54.0270    11.6760 n3         1 L1G      -0.720600
     42 C31         -7.0370    67.8680    18.7850 ca         1 L1G      -0.084000
     43 C32         -7.0750    68.2490    17.4220 ca         1 L1G      -0.142000
     44 C33          8.8490    52.6720    11.4250 c3         1 L1G       0.152100
     45 H6           1.0050    64.6850    11.8880 ha         1 L1G       0.125000
     46 H7           2.4900    62.6380    15.3700 ha         1 L1G       0.133000
     47 H5N1         3.6660    67.1190    12.0500 hn         1 L1G       0.504500
     48 H5N2         2.7470    65.9520    12.9450 hn         1 L1G       0.504500
     49 H9           0.6210    63.4880    16.7050 ha         1 L1G       0.155000
     50 H10          5.8030    60.6330    10.7700 h1         1 L1G       0.083700
     51 H11          6.5060    64.9140     9.4450 h5         1 L1G       0.047100
     52 H131         5.1540    59.7560    13.6440 hc         1 L1G       0.057700
     53 H132         6.5710    60.6680    13.1340 hc         1 L1G       0.057700
     54 H141         3.5820    59.7200    10.1320 hc         1 L1G       0.057700
     55 H142         3.3000    59.1600    11.7780 hc         1 L1G       0.057700
     56 HA          -2.0080    65.7140    15.2020 hn         1 L1G       0.176000
     57 H151        -1.1490    65.3070    11.1010 h1         1 L1G       0.044700
     58 H152        -0.1880    66.7430    11.5470 h1         1 L1G       0.044700
     59 H153        -1.9620    66.8230    11.5400 h1         1 L1G       0.044700
     60 H161         7.0910    58.2390    13.4020 hc         1 L1G       0.048950
     61 H162         7.3690    58.7770    11.7490 hc         1 L1G       0.048950
     62 H171         5.5280    58.2080     9.8870 hc         1 L1G       0.048950
     63 H172         4.1130    57.2770    10.3710 hc         1 L1G       0.048950
     64 H19          4.8310    57.3620    12.7510 h1         1 L1G       0.056700
     65 H21         -3.5960    66.6330    15.3980 ha         1 L1G       0.207000
     66 H221         8.1610    56.7760    11.0310 h1         1 L1G       0.038200
     67 H222         6.9760    56.5670     9.7340 h1         1 L1G       0.038200
     68 H231         5.8430    55.4080    13.6850 h1         1 L1G       0.038200
     69 H232         7.4740    56.0510    13.4490 h1         1 L1G       0.038200
     70 H251        -3.9170    64.4500    20.0660 h1         1 L1G       0.057367
     71 H252        -3.8080    66.1160    20.7110 h1         1 L1G       0.057367
     72 H253        -2.3650    65.3400    20.0280 h1         1 L1G       0.057367
     73 H271         8.6970    54.7810     9.7090 h1         1 L1G       0.037950
     74 H272         7.0700    54.1270     9.9380 h1         1 L1G       0.037950
     75 H281         6.3760    53.4110    12.3420 h1         1 L1G       0.037950
     76 H282         7.5640    53.6060    13.6360 h1         1 L1G       0.037950
     77 H29         -5.9420    66.7950    20.3280 ha         1 L1G       0.117000
     78 H30         -6.0640    68.1330    15.4900 ha         1 L1G       0.115000
     79 H31         -7.8370    68.1760    19.4550 ha         1 L1G       0.112000
     80 H32         -7.9040    68.8470    17.0500 ha         1 L1G       0.113000
     81 H331         8.0740    52.0150    11.0050 h1         1 L1G       0.030700
     82 H332         9.2140    52.2210    12.3570 h1         1 L1G       0.030700
     83 H333         9.6870    52.7120    10.7170 h1         1 L1G       0.030700
@<TRIPOS>BOND
     1     1     2 1   
     2     1     3 1   
     3     1     4 2   
     4     2     5 ar  
     5     2     6 ar  
     6     3     7 ar  
     7     3     8 ar  
     8     4     9 1   
     9     5     9 1   
    10     5    10 ar  
    11     6    11 ar  
    12     6    12 1   
    13     7    13 ar  
    14     7    45 1   
    15     8    14 ar  
    16     8    46 1   
    17     9    15 1   
    18    10    16 ar  
    19    11    16 ar  
    20    12    47 1   
    21    12    48 1   
    22    13    17 ar  
    23    13    18 1   
    24    14    17 ar  
    25    14    49 1   
    26    15    19 1   
    27    15    20 1   
    28    15    50 1   
    29    16    51 1   
    30    17    21 1   
    31    18    22 1   
    32    19    23 1   
    33    19    52 1   
    34    19    53 1   
    35    20    24 1   
    36    20    54 1   
    37    20    55 1   
    38    21    25 1   
    39    21    56 1   
    40    22    57 1   
    41    22    58 1   
    42    22    59 1   
    43    23    26 1   
    44    23    60 1   
    45    23    61 1   
    46    24    26 1   
    47    24    62 1   
    48    24    63 1   
    49    25    27 1   
    50    25    28 2   
    51    26    29 1   
    52    26    64 1   
    53    27    30 1   
    54    27    31 2   
    55    29    32 1   
    56    29    33 1   
    57    30    34 1   
    58    30    35 1   
    59    31    36 1   
    60    31    65 1   
    61    32    37 1   
    62    32    66 1   
    63    32    67 1   
    64    33    38 1   
    65    33    68 1   
    66    33    69 1   
    67    34    36 ar  
    68    34    39 ar  
    69    35    70 1   
    70    35    71 1   
    71    35    72 1   
    72    36    40 ar  
    73    37    41 1   
    74    37    73 1   
    75    37    74 1   
    76    38    41 1   
    77    38    75 1   
    78    38    76 1   
    79    39    42 ar  
    80    39    77 1   
    81    40    43 ar  
    82    40    78 1   
    83    41    44 1   
    84    42    43 ar  
    85    42    79 1   
    86    43    80 1   
    87    44    81 1   
    88    44    82 1   
    89    44    83 1   
@<TRIPOS>SUBSTRUCTURE
     1 L1G         1 TEMP              0 ****  ****    0 ROOT
