@<TRIPOS>MOLECULE
L1H
   51    54     1     0     0
SMALL
No Charge or Current Charge


@<TRIPOS>ATOM
      1 C2           2.3740     2.2830    -0.3860 ca         1 L1H       0.163000
      2 C3           3.6490     1.7440    -0.1720 ca         1 L1H      -0.126000
      3 C4           3.8280     0.3500    -0.0130 cp         1 L1H      -0.010000
      4 C5           2.6770    -0.4780    -0.0750 ca         1 L1H      -0.068000
      5 C6           1.3800     0.0510    -0.2820 ca         1 L1H      -0.121600
      6 C7           1.2460     1.4530    -0.4440 ca         1 L1H      -0.124000
      7 C8           0.1930    -0.8950    -0.3420 c          1 L1H       0.629700
      8 O9           0.3530    -2.1050    -0.4200 o          1 L1H      -0.533100
      9 N10         -1.0480    -0.3060    -0.3240 ns         1 L1H      -0.430400
     10 C11         -2.2900    -0.8870    -0.3650 cc         1 L1H       0.500400
     11 C15         -6.1290    -3.2950    -0.3630 ca         1 L1H      -0.133000
     12 C16         -6.7130    -2.0070    -0.4110 ca         1 L1H      -0.100000
     13 C17         -5.8980    -0.8560    -0.4380 ca         1 L1H      -0.119000
     14 C18         -4.5070    -1.0450    -0.4200 ca         1 L1H      -0.082200
     15 C21         -3.3210     2.2070     0.5890 c3         1 L1H       0.168000
     16 C23         -4.0880     1.7590     1.8530 c3         1 L1H      -0.122100
     17 C27          7.5990    -0.2460    -0.1270 ca         1 L1H      -0.165000
     18 C30          5.3830    -1.3800     1.0270 ca         1 L1H       0.354900
     19 F1           2.2300     3.6170    -0.5400 f          1 L1H      -0.176000
     20 N12         -2.5420    -2.2070    -0.3340 nd         1 L1H      -0.571100
     21 C13         -3.9320    -2.2850    -0.3660 ca         1 L1H       0.087400
     22 C14         -4.7250    -3.4420    -0.3390 ca         1 L1H      -0.051000
     23 N19         -3.4750    -0.1490    -0.4330 na         1 L1H      -0.207600
     24 C20         -3.6490     1.3090    -0.6410 c3         1 L1H       0.086600
     25 C22         -3.6300     3.6840     0.2630 c3         1 L1H      -0.122100
     26 O24         -1.9210     2.1250     0.8710 oh         1 L1H      -0.693000
     27 C25          5.1900    -0.2310     0.2130 cp         1 L1H      -0.098000
     28 C26          6.3470     0.3390    -0.3740 ca         1 L1H      -0.062000
     29 C28          7.6770    -1.3810     0.6950 ca         1 L1H       0.342900
     30 N29          6.5910    -1.9460     1.2690 nb         1 L1H      -0.662000
     31 H1           4.4990     2.4180    -0.1190 ha         1 L1H       0.136000
     32 H2           2.7980    -1.5540     0.0310 ha         1 L1H       0.144000
     33 H3           0.2840     1.9190    -0.6330 ha         1 L1H       0.138000
     34 H4          -1.0480     0.6970    -0.1870 hn         1 L1H       0.362500
     35 H5          -6.7650    -4.1770    -0.3420 ha         1 L1H       0.114000
     36 H6          -7.7960    -1.9030    -0.4240 ha         1 L1H       0.110000
     37 H7          -6.3440     0.1340    -0.4670 ha         1 L1H       0.111000
     38 H8          -3.8020     0.7440     2.1530 hc         1 L1H       0.049867
     39 H9          -3.8830     2.4290     2.6980 hc         1 L1H       0.049867
     40 H10         -5.1700     1.7660     1.6710 hc         1 L1H       0.049867
     41 H11          8.5020     0.1680    -0.5670 ha         1 L1H       0.126000
     42 H12          4.5360    -1.8570     1.5170 h4         1 L1H       0.028100
     43 H13         -4.2660    -4.4260    -0.2960 ha         1 L1H       0.132000
     44 H14         -4.6810     1.5050    -0.9530 h1         1 L1H       0.071200
     45 H15         -3.0100     1.6120    -1.4800 h1         1 L1H       0.071200
     46 H16         -4.6960     3.8180     0.0410 hc         1 L1H       0.049867
     47 H17         -3.3770     4.3380     1.1070 hc         1 L1H       0.049867
     48 H18         -3.0570     4.0200    -0.6100 hc         1 L1H       0.049867
     49 H19         -1.7540     2.7080     1.6450 ho         1 L1H       0.460000
     50 H20          6.2750     1.2110    -1.0200 ha         1 L1H       0.120000
     51 H21          8.6370    -1.8540     0.9010 h4         1 L1H       0.022100
@<TRIPOS>BOND
     1     1     2 ar  
     2     1     6 ar  
     3     1    19 1   
     4     2     3 ar  
     5     2    31 1   
     6     3     4 ar  
     7     3    27 1   
     8     4     5 ar  
     9     4    32 1   
    10     5     6 ar  
    11     5     7 1   
    12     6    33 1   
    13     7     8 2   
    14     7     9 1   
    15     9    10 1   
    16     9    34 1   
    17    10    20 2   
    18    10    23 1   
    19    11    12 ar  
    20    11    22 ar  
    21    11    35 1   
    22    12    13 ar  
    23    12    36 1   
    24    13    14 ar  
    25    13    37 1   
    26    14    21 ar  
    27    14    23 1   
    28    15    16 1   
    29    15    24 1   
    30    15    25 1   
    31    15    26 1   
    32    16    38 1   
    33    16    39 1   
    34    16    40 1   
    35    17    28 ar  
    36    17    29 ar  
    37    17    41 1   
    38    18    27 ar  
    39    18    30 ar  
    40    18    42 1   
    41    20    21 1   
    42    21    22 ar  
    43    22    43 1   
    44    23    24 1   
    45    24    44 1   
    46    24    45 1   
    47    25    46 1   
    48    25    47 1   
    49    25    48 1   
    50    26    49 1   
    51    27    28 ar  
    52    28    50 1   
    53    29    30 ar  
    54    29    51 1   
@<TRIPOS>SUBSTRUCTURE
     1 L1H         1 TEMP              0 ****  ****    0 ROOT
