@<TRIPOS>MOLECULE
L1H
   51    54     1     0     0
SMALL
bcc


@<TRIPOS>ATOM
      1 C2           2.4300     1.6280     1.9110 ca         1 L1H       0.127900
      2 C3           3.6540     1.2940     1.3720 ca         1 L1H      -0.144000
      3 C4           3.7410     0.1950     0.5180 cp         1 L1H      -0.010000
      4 C5           2.5900    -0.5350     0.2340 ca         1 L1H      -0.086000
      5 C6           1.3650    -0.1710     0.7790 ca         1 L1H      -0.121600
      6 C7           1.2770     0.9220     1.6360 ca         1 L1H      -0.142000
      7 C8           0.1730    -1.0070     0.4410 c          1 L1H       0.696700
      8 O9           0.2790    -2.1800     0.1530 o          1 L1H      -0.533100
      9 N10         -1.0140    -0.3360     0.4620 ns         1 L1H      -0.497400
     10 C11         -2.2520    -0.9190     0.3030 cc         1 L1H       0.500400
     11 C15         -6.1210    -3.1030     0.1000 ca         1 L1H      -0.151000
     12 C16         -6.5260    -1.9330    -0.5560 ca         1 L1H      -0.118000
     13 C17         -5.6500    -0.8780    -0.7610 ca         1 L1H      -0.137000
     14 C18         -4.3550    -1.0430    -0.2900 ca         1 L1H      -0.082200
     15 C21         -3.2210     2.2720    -0.0840 c3         1 L1H       0.144800
     16 C23         -4.4150     2.2000     0.8600 c3         1 L1H      -0.122100
     17 C27          7.1730     0.3510    -1.0150 ca         1 L1H      -0.248300
     18 C30          5.3850    -1.5260    -0.2340 ca         1 L1H       0.420200
     19 F1           2.3600     2.6700     2.7500 f          1 L1H      -0.140900
     20 N12         -2.6110    -2.0920     0.7320 nd         1 L1H      -0.571100
     21 C13         -3.9310    -2.2090     0.3660 ca         1 L1H       0.087400
     22 C14         -4.8260    -3.2570     0.5670 ca         1 L1H      -0.069000
     23 N19         -3.2470    -0.2270    -0.3280 na         1 L1H      -0.178300
     24 C20         -3.1550     1.0500    -1.0050 c3         1 L1H       0.057300
     25 C22         -3.2910     3.5230    -0.9550 c3         1 L1H      -0.122100
     26 O24         -2.0020     2.2620     0.6560 oh         1 L1H      -0.630800
     27 C25          5.0380    -0.1850    -0.0680 cp         1 L1H      -0.163300
     28 C26          5.9700     0.7680    -0.4720 ca         1 L1H      -0.080000
     29 C28          7.4080    -1.0100    -1.1400 ca         1 L1H       0.408200
     30 N29          6.5330    -1.9330    -0.7550 nb         1 L1H      -0.662000
     31 H1           4.5310     1.8720     1.6370 ha         1 L1H       0.154000
     32 H2           2.6390    -1.3780    -0.4420 ha         1 L1H       0.162000
     33 H3           0.3510     1.2100     2.1170 ha         1 L1H       0.156000
     34 H4          -1.0280     0.6770     0.5680 hn         1 L1H       0.362500
     35 H5          -6.8380    -3.9000     0.2440 ha         1 L1H       0.132000
     36 H6          -7.5450    -1.8490    -0.9090 ha         1 L1H       0.128000
     37 H7          -5.9710     0.0240    -1.2650 ha         1 L1H       0.129000
     38 H8          -4.3670     1.3220     1.5050 hc         1 L1H       0.049867
     39 H9          -4.4470     3.0860     1.4970 hc         1 L1H       0.049867
     40 H10         -5.3520     2.1670     0.3040 hc         1 L1H       0.049867
     41 H11          7.9140     1.0660    -1.3430 ha         1 L1H       0.144000
     42 H12          4.7030    -2.3070     0.0870 h4         1 L1H       0.028100
     43 H13         -4.5150    -4.1620     1.0730 ha         1 L1H       0.150000
     44 H14         -3.9760     1.0980    -1.7200 h1         1 L1H       0.071200
     45 H15         -2.2330     1.0770    -1.5910 h1         1 L1H       0.071200
     46 H16         -4.2130     3.5450    -1.5350 hc         1 L1H       0.049867
     47 H17         -3.2690     4.4220    -0.3360 hc         1 L1H       0.049867
     48 H18         -2.4500     3.5680    -1.6490 hc         1 L1H       0.049867
     49 H19         -2.0510     2.9110     1.3670 ho         1 L1H       0.421000
     50 H20          5.7520     1.8250    -0.3810 ha         1 L1H       0.138000
     51 H21          8.3370    -1.3690    -1.5670 h4         1 L1H       0.022100
@<TRIPOS>BOND
     1     1     2 ar  
     2     1     6 ar  
     3     1    19 1   
     4     2     3 ar  
     5     2    31 1   
     6     3     4 ar  
     7     3    27 1   
     8     4     5 ar  
     9     4    32 1   
    10     5     6 ar  
    11     5     7 1   
    12     6    33 1   
    13     7     8 2   
    14     7     9 1   
    15     9    10 1   
    16     9    34 1   
    17    10    20 2   
    18    10    23 1   
    19    11    12 ar  
    20    11    22 ar  
    21    11    35 1   
    22    12    13 ar  
    23    12    36 1   
    24    13    14 ar  
    25    13    37 1   
    26    14    21 ar  
    27    14    23 1   
    28    15    16 1   
    29    15    24 1   
    30    15    25 1   
    31    15    26 1   
    32    16    38 1   
    33    16    39 1   
    34    16    40 1   
    35    17    28 ar  
    36    17    29 ar  
    37    17    41 1   
    38    18    27 ar  
    39    18    30 ar  
    40    18    42 1   
    41    20    21 1   
    42    21    22 ar  
    43    22    43 1   
    44    23    24 1   
    45    24    44 1   
    46    24    45 1   
    47    25    46 1   
    48    25    47 1   
    49    25    48 1   
    50    26    49 1   
    51    27    28 ar  
    52    28    50 1   
    53    29    30 ar  
    54    29    51 1   
@<TRIPOS>SUBSTRUCTURE
     1 L1H         1 TEMP              0 ****  ****    0 ROOT
