@<TRIPOS>MOLECULE
L1J
   32    34     1     0     0
SMALL
No Charge or Current Charge


@<TRIPOS>ATOM
      1 O5          19.9810    27.4650    19.6540 oh         1 L1J      -0.709000
      2 C5          20.2510    28.6210    18.8350 c3         1 L1J       0.156600
      3 C4          21.7610    28.7620    18.4700 c5         1 L1J       0.174300
      4 O4          22.5320    29.1240    19.6500 os         1 L1J      -0.449000
      5 C1          23.7680    28.3960    19.5950 c5         1 L1J       0.330300
      6 N9          24.4780    28.5070    20.8730 na         1 L1J      -0.184500
      7 C8          25.4140    29.4840    21.1490 cc         1 L1J       0.404400
      8 N7          25.9470    29.3340    22.3570 nd         1 L1J      -0.592000
      9 C7          25.3370    28.2030    22.8840 cd         1 L1J       0.078500
     10 C9          24.4380    27.6840    21.9790 cc         1 L1J       0.169400
     11 N3          23.6710    26.5560    22.2040 nc         1 L1J      -0.698100
     12 C2          23.8760    26.0130    23.3760 cd         1 L1J       0.744800
     13 N1          24.7240    26.4300    24.3340 ns         1 L1J      -0.460400
     14 C6          25.5170    27.5310    24.2030 c          1 L1J       0.521500
     15 O6          26.2780    27.8920    25.0910 o          1 L1J      -0.520000
     16 N2          23.1690    24.9280    23.6280 nv         1 L1J      -1.065200
     17 C10         23.3180    27.0140    19.0700 c5         1 L1J      -0.157400
     18 C3          22.4450    27.4710    17.8740 c5         1 L1J       0.141300
     19 O3          23.2740    27.7640    16.7400 oh         1 L1J      -0.725000
     20 HO5         19.0310    27.5100    19.9120 ho         1 L1J       0.500000
     21 H5'2        19.9310    29.5370    19.3490 h1         1 L1J       0.031200
     22 H5'1        19.6790    28.5560    17.9000 h1         1 L1J       0.031200
     23 H4          21.8420    29.5870    17.7490 h1         1 L1J       0.075700
     24 H1          24.4280    28.8660    18.8540 h2         1 L1J       0.063700
     25 H8          25.6570    30.2650    20.4390 h5         1 L1J       0.058100
     26 HN1         24.7770    25.9360    25.2090 hn         1 L1J       0.319500
     27 HN22        22.7010    24.5670    22.8070 hn         1 L1J       0.508000
     28 HN21        23.5990    24.2270    24.2180 hn         1 L1J       0.508000
     29 H2'2        22.7110    26.4710    19.8000 hc         1 L1J       0.086200
     30 H2'1        24.1570    26.3730    18.7830 hc         1 L1J       0.086200
     31 H3          21.6990    26.7070    17.6090 h1         1 L1J       0.061700
     32 H6          23.5120    26.9020    16.3230 ho         1 L1J       0.509000
@<TRIPOS>BOND
     1     1     2 1   
     2     1    20 1   
     3     2     3 1   
     4     2    21 1   
     5     2    22 1   
     6     3     4 1   
     7     3    18 1   
     8     3    23 1   
     9     4     5 1   
    10     5     6 1   
    11     5    17 1   
    12     5    24 1   
    13     6     7 1   
    14     6    10 1   
    15     7     8 2   
    16     7    25 1   
    17     8     9 1   
    18     9    10 2   
    19     9    14 1   
    20    10    11 1   
    21    11    12 2   
    22    12    13 1   
    23    12    16 1   
    24    13    14 1   
    25    13    26 1   
    26    14    15 2   
    27    16    27 1   
    28    16    28 1   
    29    17    18 1   
    30    17    29 1   
    31    17    30 1   
    32    18    19 1   
    33    18    31 1   
    34    19    32 1   
@<TRIPOS>SUBSTRUCTURE
     1 L1J         1 TEMP              0 ****  ****    0 ROOT
