@<TRIPOS>MOLECULE
L1J
   32    34     1     0     0
SMALL
bcc


@<TRIPOS>ATOM
      1 O5          20.5660    27.0870    20.0480 oh         1 L1J      -0.586800
      2 C5          20.4300    28.2580    19.2810 c3         1 L1J       0.133400
      3 C4          21.7590    28.6560    18.6790 c5         1 L1J       0.151100
      4 O4          22.6650    29.0830    19.6940 os         1 L1J      -0.402600
      5 C1          23.9190    28.4850    19.4830 c5         1 L1J       0.277800
      6 N9          24.6420    28.4480    20.7280 na         1 L1J      -0.205900
      7 C8          25.6670    29.3100    21.0430 cc         1 L1J       0.404400
      8 N7          26.1190    29.1540    22.2450 nd         1 L1J      -0.592000
      9 C7          25.3550    28.1420    22.7680 cd         1 L1J       0.143800
     10 C9          24.4270    27.6920    21.8460 cc         1 L1J       0.154800
     11 N3          23.5190    26.7220    22.0050 nc         1 L1J      -0.698100
     12 C2          23.5420    26.1680    23.1920 cd         1 L1J       0.744800
     13 N1          24.4150    26.5460    24.1720 ns         1 L1J      -0.527400
     14 C6          25.3860    27.5490    24.0640 c          1 L1J       0.664000
     15 O6          26.1130    27.8140    25.0060 o          1 L1J      -0.595500
     16 N2          22.6720    25.1960    23.4850 nv         1 L1J      -0.954800
     17 C10         23.6120    27.1480    18.8300 c5         1 L1J      -0.157400
     18 C3          22.4760    27.5410    17.8930 c5         1 L1J       0.118100
     19 O3          22.9460    28.1100    16.6890 oh         1 L1J      -0.602800
     20 HO5         19.6950    26.8230    20.3550 ho         1 L1J       0.401000
     21 H5'2        20.0490    29.0970    19.8790 h1         1 L1J       0.031200
     22 H5'1        19.7290    28.1220    18.4480 h1         1 L1J       0.031200
     23 H4          21.5600    29.4910    17.9970 h1         1 L1J       0.075700
     24 H1          24.5320    29.0960    18.8090 h2         1 L1J       0.063700
     25 H8          26.0270    30.0270    20.3200 h5         1 L1J       0.058100
     26 HN1         24.3690    26.0780    25.0690 hn         1 L1J       0.319500
     27 HN22        22.0530    24.8710    22.7630 hn         1 L1J       0.452800
     28 HN21        22.6970    24.6850    24.3500 hn         1 L1J       0.452800
     29 H2'2        23.2590    26.4320    19.5700 hc         1 L1J       0.086200
     30 H2'1        24.4720    26.7240    18.3120 hc         1 L1J       0.086200
     31 H3          21.8080    26.6970    17.6920 h1         1 L1J       0.061700
     32 H6          23.4230    27.4300    16.2030 ho         1 L1J       0.410000
@<TRIPOS>BOND
     1     1     2 1   
     2     1    20 1   
     3     2     3 1   
     4     2    21 1   
     5     2    22 1   
     6     3     4 1   
     7     3    18 1   
     8     3    23 1   
     9     4     5 1   
    10     5     6 1   
    11     5    17 1   
    12     5    24 1   
    13     6     7 1   
    14     6    10 1   
    15     7     8 2   
    16     7    25 1   
    17     8     9 1   
    18     9    10 2   
    19     9    14 1   
    20    10    11 1   
    21    11    12 2   
    22    12    13 1   
    23    12    16 1   
    24    13    14 1   
    25    13    26 1   
    26    14    15 2   
    27    16    27 1   
    28    16    28 1   
    29    17    18 1   
    30    17    29 1   
    31    17    30 1   
    32    18    19 1   
    33    18    31 1   
    34    19    32 1   
@<TRIPOS>SUBSTRUCTURE
     1 L1J         1 TEMP              0 ****  ****    0 ROOT
