@<TRIPOS>MOLECULE
L1K
   51    54     1     0     0
SMALL
bcc


@<TRIPOS>ATOM
      1 C1           2.3700    -2.2640     1.4510 c3         1 L1K      -0.107100
      2 C2           3.5040    -2.3380     0.4390 c3         1 L1K       0.145800
      3 C3           3.6730    -3.7710    -0.0600 c3         1 L1K      -0.107100
      4 C5           3.2350    -1.4450    -0.7870 c3         1 L1K       0.027300
      5 C7           4.1520     0.8560    -0.3480 ca         1 L1K      -0.061200
      6 C8           5.5220     0.7380    -0.5480 ca         1 L1K      -0.127000
      7 C11          4.3360     3.2000     0.2410 ca         1 L1K      -0.066000
      8 C12          3.5530     2.0670     0.0300 ca         1 L1K       0.080400
      9 N13          2.1890     1.9180     0.1050 nc         1 L1K      -0.560100
     10 C16         -0.3590     0.3910     0.4380 c          1 L1K       0.691700
     11 C18         -1.5790    -0.4100     0.1040 ca         1 L1K      -0.113600
     12 C19         -1.5240    -1.7440    -0.2770 ca         1 L1K      -0.241300
     13 C23         -2.8200     0.1970     0.2290 ca         1 L1K      -0.187300
     14 C24         -5.3160     0.0700     0.0060 cp         1 L1K      -0.156500
     15 C27         -7.8810     1.1780     0.1520 ca         1 L1K      -0.112000
     16 O4           4.6630    -1.8980     1.1190 oh         1 L1K      -0.576800
     17 N6           3.1120    -0.0360    -0.4800 na         1 L1K      -0.168300
     18 C9           6.2840     1.8750    -0.3400 ca         1 L1K      -0.114000
     19 C10          5.7020     3.0880     0.0540 ca         1 L1K      -0.151000
     20 C14          1.9780     0.6740    -0.2020 cd         1 L1K       0.482400
     21 N15          0.7400     0.0660    -0.3030 ns         1 L1K      -0.491400
     22 O17         -0.3750     1.2450     1.2940 o          1 L1K      -0.514100
     23 C20         -2.7220    -2.4010    -0.5160 ca         1 L1K       0.409200
     24 N21         -3.9040    -1.8170    -0.4280 nb         1 L1K      -0.661000
     25 C22         -3.9680    -0.5340    -0.0720 cp         1 L1K       0.478800
     26 C25         -6.4350    -0.7470     0.1770 ca         1 L1K      -0.095500
     27 C26         -7.7050    -0.1970     0.2550 ca         1 L1K      -0.136500
     28 C28         -6.7750     1.9980    -0.0280 ca         1 L1K      -0.136500
     29 C29         -5.5030     1.4490    -0.1000 ca         1 L1K      -0.095500
     30 H1           1.4230    -2.5570     1.0000 hc         1 L1K       0.047700
     31 H2           2.5640    -2.9480     2.2790 hc         1 L1K       0.047700
     32 H3           2.2570    -1.2630     1.8700 hc         1 L1K       0.047700
     33 H4           2.7680    -4.1330    -0.5470 hc         1 L1K       0.047700
     34 H5           4.4910    -3.8490    -0.7810 hc         1 L1K       0.047700
     35 H6           3.8940    -4.4390     0.7740 hc         1 L1K       0.047700
     36 H7           4.0440    -1.5570    -1.5120 h1         1 L1K       0.053700
     37 H8           2.3350    -1.7840    -1.3010 h1         1 L1K       0.053700
     38 H9           5.9860    -0.1890    -0.8570 ha         1 L1K       0.126000
     39 H10          3.8840     4.1380     0.5370 ha         1 L1K       0.149000
     40 H11         -0.5960    -2.2940    -0.3630 ha         1 L1K       0.137000
     41 H12         -2.8860     1.2240     0.5580 ha         1 L1K       0.167000
     42 H13         -8.8730     1.6060     0.2080 ha         1 L1K       0.132000
     43 H14          5.4390    -2.1120     0.5910 ho         1 L1K       0.401000
     44 H15          7.3560     1.8240    -0.4820 ha         1 L1K       0.128000
     45 H16          6.3360     3.9510     0.2090 ha         1 L1K       0.132000
     46 H17          0.6200    -0.6030    -1.0500 hn         1 L1K       0.327500
     47 H18         -2.7160    -3.4480    -0.7940 h4         1 L1K       0.022100
     48 H19         -6.3080    -1.8170     0.2570 ha         1 L1K       0.141000
     49 H20         -8.5610    -0.8440     0.3960 ha         1 L1K       0.133500
     50 H21         -6.9010     3.0680    -0.1200 ha         1 L1K       0.133500
     51 H22         -4.6600     2.1080    -0.2610 ha         1 L1K       0.141000
@<TRIPOS>BOND
     1     1     2 1   
     2     1    30 1   
     3     1    31 1   
     4     1    32 1   
     5     2     3 1   
     6     2     4 1   
     7     2    16 1   
     8     3    33 1   
     9     3    34 1   
    10     3    35 1   
    11     4    17 1   
    12     4    36 1   
    13     4    37 1   
    14     5     6 ar  
    15     5     8 ar  
    16     5    17 1   
    17     6    18 ar  
    18     6    38 1   
    19     7     8 ar  
    20     7    19 ar  
    21     7    39 1   
    22     8     9 1   
    23     9    20 2   
    24    10    11 1   
    25    10    21 1   
    26    10    22 2   
    27    11    12 ar  
    28    11    13 ar  
    29    12    23 ar  
    30    12    40 1   
    31    13    25 ar  
    32    13    41 1   
    33    14    25 1   
    34    14    26 ar  
    35    14    29 ar  
    36    15    27 ar  
    37    15    28 ar  
    38    15    42 1   
    39    16    43 1   
    40    17    20 1   
    41    18    19 ar  
    42    18    44 1   
    43    19    45 1   
    44    20    21 1   
    45    21    46 1   
    46    23    24 ar  
    47    23    47 1   
    48    24    25 ar  
    49    26    27 ar  
    50    26    48 1   
    51    27    49 1   
    52    28    29 ar  
    53    28    50 1   
    54    29    51 1   
@<TRIPOS>SUBSTRUCTURE
     1 L1K         1 TEMP              0 ****  ****    0 ROOT
