@<TRIPOS>MOLECULE
L1K
   51    54     1     0     0
SMALL
No Charge or Current Charge


@<TRIPOS>ATOM
      1 C1           2.2350    -2.3900     1.4000 c3         1 L1K      -0.107100
      2 C2           3.4950    -2.4380     0.5030 c3         1 L1K       0.169000
      3 C3           3.7360    -3.8810     0.0060 c3         1 L1K      -0.107100
      4 C5           3.3880    -1.4650    -0.7170 c3         1 L1K       0.056600
      5 C7           4.2660     0.8720    -0.2650 ca         1 L1K      -0.061200
      6 C8           5.6520     0.6800    -0.3950 ca         1 L1K      -0.109000
      7 C11          4.5410     3.2160     0.2070 ca         1 L1K      -0.048000
      8 C12          3.7220     2.0920     0.0210 ca         1 L1K       0.080400
      9 N13          2.3400     2.0390     0.0790 nc         1 L1K      -0.560100
     10 C16         -0.4020     0.7840    -0.0660 c          1 L1K       0.624700
     11 C18         -1.6080    -0.1190    -0.2590 ca         1 L1K      -0.113600
     12 C19         -1.5140    -1.4720    -0.6650 ca         1 L1K      -0.158000
     13 C23         -2.9110     0.3800    -0.0270 ca         1 L1K      -0.104000
     14 C24         -5.4530     0.0460     0.0350 cp         1 L1K      -0.156500
     15 C27         -8.1100     0.9780     0.4820 ca         1 L1K      -0.094000
     16 O4           4.6110    -2.0740     1.3210 oh         1 L1K      -0.639000
     17 N6           3.2390    -0.0270    -0.3870 na         1 L1K      -0.197600
     18 C9           6.4930     1.7960    -0.2130 ca         1 L1K      -0.096000
     19 C10          5.9390     3.0610     0.0890 ca         1 L1K      -0.133000
     20 C14          2.0780     0.7460    -0.1840 cd         1 L1K       0.482400
     21 N15          0.8240     0.1930    -0.2760 ns         1 L1K      -0.424400
     22 O17         -0.5360     1.9560     0.2560 o          1 L1K      -0.514100
     23 C20         -2.6840    -2.2360    -0.8060 ca         1 L1K       0.343900
     24 N21         -3.9190    -1.7420    -0.5760 nb         1 L1K      -0.661000
     25 C22         -4.0490    -0.4490    -0.2010 cp         1 L1K       0.413500
     26 C25         -6.5060    -0.8490     0.3740 ca         1 L1K      -0.077500
     27 C26         -7.8150    -0.3890     0.5960 ca         1 L1K      -0.118500
     28 C28         -7.0930     1.8830     0.1420 ca         1 L1K      -0.118500
     29 C29         -5.7830     1.4250    -0.0790 ca         1 L1K      -0.077500
     30 H1           1.3370    -2.6550     0.8300 hc         1 L1K       0.047700
     31 H2           2.3250    -3.0980     2.2330 hc         1 L1K       0.047700
     32 H3           2.0910    -1.3920     1.8300 hc         1 L1K       0.047700
     33 H4           2.8910    -4.2280    -0.6020 hc         1 L1K       0.047700
     34 H5           4.6420    -3.9420    -0.6090 hc         1 L1K       0.047700
     35 H6           3.8510    -4.5730     0.8500 hc         1 L1K       0.047700
     36 H7           4.2760    -1.5840    -1.3490 h1         1 L1K       0.053700
     37 H8           2.5320    -1.7660    -1.3340 h1         1 L1K       0.053700
     38 H9           6.0720    -0.2940    -0.6290 ha         1 L1K       0.108000
     39 H10          4.1050     4.1860     0.4340 ha         1 L1K       0.131000
     40 H11         -0.5630    -1.9520    -0.8750 ha         1 L1K       0.119000
     41 H12         -3.0450     1.4040     0.3030 ha         1 L1K       0.149000
     42 H13         -9.1230     1.3340     0.6530 ha         1 L1K       0.114000
     43 H14          5.4210    -2.1980     0.7820 ho         1 L1K       0.440000
     44 H15          7.5710     1.6830    -0.3050 ha         1 L1K       0.110000
     45 H16          6.5920     3.9200     0.2290 ha         1 L1K       0.114000
     46 H17          0.7710    -0.7800    -0.5250 hn         1 L1K       0.327500
     47 H18         -2.6300    -3.2800    -1.1130 h4         1 L1K       0.022100
     48 H19         -6.3060    -1.9140     0.4750 ha         1 L1K       0.123000
     49 H20         -8.6010    -1.0940     0.8580 ha         1 L1K       0.115500
     50 H21         -7.3210     2.9430     0.0460 ha         1 L1K       0.115500
     51 H22         -5.0250     2.1530    -0.3600 ha         1 L1K       0.123000
@<TRIPOS>BOND
     1     1     2 1   
     2     1    30 1   
     3     1    31 1   
     4     1    32 1   
     5     2     3 1   
     6     2     4 1   
     7     2    16 1   
     8     3    33 1   
     9     3    34 1   
    10     3    35 1   
    11     4    17 1   
    12     4    36 1   
    13     4    37 1   
    14     5     6 ar  
    15     5     8 ar  
    16     5    17 1   
    17     6    18 ar  
    18     6    38 1   
    19     7     8 ar  
    20     7    19 ar  
    21     7    39 1   
    22     8     9 1   
    23     9    20 2   
    24    10    11 1   
    25    10    21 1   
    26    10    22 2   
    27    11    12 ar  
    28    11    13 ar  
    29    12    23 ar  
    30    12    40 1   
    31    13    25 ar  
    32    13    41 1   
    33    14    25 1   
    34    14    26 ar  
    35    14    29 ar  
    36    15    27 ar  
    37    15    28 ar  
    38    15    42 1   
    39    16    43 1   
    40    17    20 1   
    41    18    19 ar  
    42    18    44 1   
    43    19    45 1   
    44    20    21 1   
    45    21    46 1   
    46    23    24 ar  
    47    23    47 1   
    48    24    25 ar  
    49    26    27 ar  
    50    26    48 1   
    51    27    49 1   
    52    28    29 ar  
    53    28    50 1   
    54    29    51 1   
@<TRIPOS>SUBSTRUCTURE
     1 L1K         1 TEMP              0 ****  ****    0 ROOT
