@<TRIPOS>MOLECULE
L1M
   32    31     1     0     0
SMALL
abcg2


@<TRIPOS>ATOM
      1 C10          9.3770    44.9650    31.7250 c3         1 L1M       0.223300
      2 C13          7.0830    43.0600    33.1790 c3         1 L1M      -0.110100
      3 C01          6.2390    40.8040    25.7180 c3         1 L1M      -0.126100
      4 C02          7.6350    41.1560    26.1910 c3         1 L1M       0.212600
      5 C07          8.5770    43.1250    30.2780 c2         1 L1M       0.803200
      6 C08          9.9100    43.1700    29.5710 c3         1 L1M      -0.203400
      7 C11          9.2050    46.3400    31.0870 c3         1 L1M      -0.110100
      8 C12          7.0940    44.0180    31.9940 c3         1 L1M       0.223300
      9 N06          7.6260    42.2750    29.9770 ne         1 L1M      -1.076900
     10 N09          8.3710    43.9980    31.2720 nh         1 L1M      -0.746600
     11 O03          7.6000    41.8790    27.4480 os         1 L1M      -0.630400
     12 O05          8.6850    40.0410    28.9120 o          1 L1M      -0.596000
     13 P04          7.6410    41.1030    28.8580 py         1 L1M       1.321000
     14 H1           9.2780    45.0390    32.8090 h1         1 L1M       0.055950
     15 H2          10.3710    44.5720    31.5310 h1         1 L1M       0.055950
     16 H3           6.1280    43.1310    33.7050 hc         1 L1M       0.044033
     17 H4           7.2170    42.0320    32.8440 hc         1 L1M       0.044033
     18 H5           7.8780    43.3030    33.8860 hc         1 L1M       0.044033
     19 H6           6.2960    40.3300    24.7360 hc         1 L1M       0.046700
     20 H7           5.7510    40.1100    26.4040 hc         1 L1M       0.046700
     21 H8           5.6240    41.7010    25.6330 hc         1 L1M       0.046700
     22 H9           8.2550    40.2660    26.3090 h1         1 L1M       0.052700
     23 H10          8.1290    41.8270    25.4880 h1         1 L1M       0.052700
     24 H11         10.1850    44.1880    29.2990 hc         1 L1M       0.068033
     25 H12         10.6910    42.7750    30.2240 hc         1 L1M       0.068033
     26 H13          9.8800    42.5650    28.6710 hc         1 L1M       0.068033
     27 H14          9.9450    47.0310    31.4940 hc         1 L1M       0.044033
     28 H15          9.3390    46.2890    30.0060 hc         1 L1M       0.044033
     29 H16          8.2130    46.7440    31.2930 hc         1 L1M       0.044033
     30 H17          6.9330    45.0420    32.3310 h1         1 L1M       0.055950
     31 H18          6.3030    43.7670    31.2930 h1         1 L1M       0.055950
     32 H19          6.3590    40.5550    28.9810 hp         1 L1M      -0.119400
@<TRIPOS>BOND
     1     1     7 1   
     2     1    10 1   
     3     1    14 1   
     4     1    15 1   
     5     2     8 1   
     6     2    16 1   
     7     2    17 1   
     8     2    18 1   
     9     3     4 1   
    10     3    19 1   
    11     3    20 1   
    12     3    21 1   
    13     4    11 1   
    14     4    22 1   
    15     4    23 1   
    16     5     6 1   
    17     5     9 2   
    18     5    10 1   
    19     6    24 1   
    20     6    25 1   
    21     6    26 1   
    22     7    27 1   
    23     7    28 1   
    24     7    29 1   
    25     8    10 1   
    26     8    30 1   
    27     8    31 1   
    28     9    13 1   
    29    11    13 1   
    30    12    13 2   
    31    13    32 1   
@<TRIPOS>SUBSTRUCTURE
     1 L1M         1 TEMP              0 ****  ****    0 ROOT
