@<TRIPOS>MOLECULE
L1M
   32    31     1     0     0
SMALL
No Charge or Current Charge


@<TRIPOS>ATOM
      1 C10          8.7760    45.0450    31.1050 c3         1 L1M       0.223300
      2 C13          7.2220    42.7070    33.2270 c3         1 L1M      -0.110100
      3 C01          6.8610    42.7230    26.8990 c3         1 L1M      -0.126100
      4 C02          7.7480    41.5110    26.5560 c3         1 L1M       0.212600
      5 C07          8.6660    42.6470    30.3060 c2         1 L1M       0.803200
      6 C08         10.0680    42.7730    29.7220 c3         1 L1M      -0.203400
      7 C11          8.4220    45.8540    29.8440 c3         1 L1M      -0.110100
      8 C12          6.9720    43.5210    31.9450 c3         1 L1M       0.223300
      9 N06          7.8820    41.6510    30.0840 ne         1 L1M      -1.076900
     10 N09          8.1890    43.6820    31.1080 nh         1 L1M      -0.746600
     11 O03          8.6350    41.2610    27.6540 os         1 L1M      -0.630400
     12 O05          8.9050    39.3330    29.4050 o          1 L1M      -0.596000
     13 P04          8.1130    40.5220    28.9900 py         1 L1M       1.321000
     14 H1           8.4070    45.6120    31.9710 h1         1 L1M       0.055950
     15 H2           9.8660    45.0110    31.2250 h1         1 L1M       0.055950
     16 H3           6.3010    42.6380    33.8180 hc         1 L1M       0.044033
     17 H4           7.5520    41.6900    32.9870 hc         1 L1M       0.044033
     18 H5           7.9920    43.1870    33.8430 hc         1 L1M       0.044033
     19 H6           6.2550    43.0030    26.0300 hc         1 L1M       0.046700
     20 H7           6.1770    42.4940    27.7260 hc         1 L1M       0.046700
     21 H8           7.4760    43.5860    27.1800 hc         1 L1M       0.046700
     22 H9           7.1270    40.6320    26.3310 h1         1 L1M       0.052700
     23 H10          8.3290    41.7500    25.6550 h1         1 L1M       0.052700
     24 H11         10.0560    43.3450    28.7890 hc         1 L1M       0.068033
     25 H12         10.7550    43.2640    30.4170 hc         1 L1M       0.068033
     26 H13         10.5280    41.8020    29.5170 hc         1 L1M       0.068033
     27 H14          8.8520    46.8600    29.9070 hc         1 L1M       0.044033
     28 H15          8.8120    45.3720    28.9410 hc         1 L1M       0.044033
     29 H16          7.3350    45.9500    29.7420 hc         1 L1M       0.044033
     30 H17          6.5870    44.5040    32.2500 h1         1 L1M       0.055950
     31 H18          6.1640    43.0520    31.3670 h1         1 L1M       0.055950
     32 H19          6.7870    40.2190    28.6080 hp         1 L1M      -0.119400
@<TRIPOS>BOND
     1     1     7 1   
     2     1    10 1   
     3     1    14 1   
     4     1    15 1   
     5     2     8 1   
     6     2    16 1   
     7     2    17 1   
     8     2    18 1   
     9     3     4 1   
    10     3    19 1   
    11     3    20 1   
    12     3    21 1   
    13     4    11 1   
    14     4    22 1   
    15     4    23 1   
    16     5     6 1   
    17     5     9 2   
    18     5    10 1   
    19     6    24 1   
    20     6    25 1   
    21     6    26 1   
    22     7    27 1   
    23     7    28 1   
    24     7    29 1   
    25     8    10 1   
    26     8    30 1   
    27     8    31 1   
    28     9    13 1   
    29    11    13 1   
    30    12    13 2   
    31    13    32 1   
@<TRIPOS>SUBSTRUCTURE
     1 L1M         1 TEMP              0 ****  ****    0 ROOT
