@<TRIPOS>MOLECULE
L1N
   46    50     1     0     0
SMALL
No Charge or Current Charge


@<TRIPOS>ATOM
      1 C01          2.8020    15.6980    20.9160 ca         1 L1N      -0.044000
      2 C02          1.9510    16.0510    21.9730 ca         1 L1N      -0.195000
      3 C03          0.6880    16.5950    21.6820 ca         1 L1N       0.381900
      4 C05          1.0720    16.4780    19.4140 ca         1 L1N       0.605900
      5 C06          2.3420    15.9140    19.6080 ca         1 L1N      -0.199000
      6 C11          0.8660    19.4210    18.2790 ca         1 L1N      -0.310500
      7 C12          2.0630    19.8140    17.6460 ca         1 L1N       0.002500
      8 C13          2.8460    20.8390    18.2040 ca         1 L1N      -0.145000
      9 C14          2.4410    21.4710    19.3890 ca         1 L1N       0.200400
     10 C15          1.2470    21.0840    20.0180 ca         1 L1N      -0.145000
     11 C16          0.4580    20.0600    19.4680 ca         1 L1N       0.002500
     12 C18          4.1450    22.2170    20.8650 ce         1 L1N       0.567500
     13 C19          5.0460    23.1460    21.5440 cc         1 L1N      -0.266800
     14 C20          5.1530    24.5180    21.3400 cd         1 L1N       0.220000
     15 C22          6.6320    24.0350    22.9170 ca         1 L1N      -0.054200
     16 C23          6.0180    22.8540    22.5790 ca         1 L1N      -0.008800
     17 C24          6.3930    21.6630    23.2320 ca         1 L1N      -0.149000
     18 C25          7.3810    21.6920    24.2080 ca         1 L1N       0.079400
     19 C26          8.0110    22.9070    24.5520 ca         1 L1N      -0.048000
     20 C27          7.6340    24.1000    23.8990 ca         1 L1N      -0.109000
     21 C29          6.9150    19.5410    24.2510 cc         1 L1N       0.386100
     22 N04          0.2500    16.8020    20.4210 nb         1 L1N      -0.713000
     23 N07          0.5960    16.6870    18.1550 nu         1 L1N      -0.883000
     24 N17          3.2410    22.4820    19.9580 nf         1 L1N      -0.605100
     25 N21          6.1290    25.0840    22.1760 na         1 L1N      -0.274700
     26 N28          7.6970    20.4780    24.8090 nd         1 L1N      -0.520100
     27 O09          0.1230    17.9870    16.1520 o          1 L1N      -0.536500
     28 O10         -1.4720    18.0770    18.1590 o          1 L1N      -0.536500
     29 O31          4.4540    25.2740    20.4730 oh         1 L1N      -0.468100
     30 S08         -0.1200    18.0810    17.5930 sy         1 L1N       1.213600
     31 S30          5.7660    20.0360    22.9920 ss         1 L1N       0.022800
     32 H1           3.7850    15.2690    21.1040 ha         1 L1N       0.120000
     33 H2           2.2550    15.9050    23.0060 ha         1 L1N       0.128000
     34 H3           0.0060    16.8720    22.4850 h4         1 L1N       0.027100
     35 H4           2.9660    15.6540    18.7590 ha         1 L1N       0.126000
     36 H5           2.3940    19.3270    16.7300 ha         1 L1N       0.127000
     37 H6           3.7700    21.1380    17.7180 ha         1 L1N       0.124500
     38 H7           0.9340    21.5720    20.9370 ha         1 L1N       0.124500
     39 H8          -0.4590    19.7610    19.9730 ha         1 L1N       0.127000
     40 H9           4.2580    21.1780    21.1670 h4         1 L1N      -0.026200
     41 H10          8.7830    22.9230    25.3180 ha         1 L1N       0.137000
     42 H11          8.1090    25.0450    24.1530 ha         1 L1N       0.122000
     43 H12          6.9460    18.4950    24.5270 h5         1 L1N       0.060800
     44 H13          1.2380    16.4380    17.4220 hn         1 L1N       0.508000
     45 H14          6.4070    26.0570    22.2290 hn         1 L1N       0.354000
     46 H15          4.7620    26.1970    20.5710 ho         1 L1N       0.471000
@<TRIPOS>BOND
     1     1     2 ar  
     2     1     5 ar  
     3     1    32 1   
     4     2     3 ar  
     5     2    33 1   
     6     3    22 ar  
     7     3    34 1   
     8     4     5 ar  
     9     4    22 ar  
    10     4    23 1   
    11     5    35 1   
    12     6     7 ar  
    13     6    11 ar  
    14     6    30 1   
    15     7     8 ar  
    16     7    36 1   
    17     8     9 ar  
    18     8    37 1   
    19     9    10 ar  
    20     9    24 1   
    21    10    11 ar  
    22    10    38 1   
    23    11    39 1   
    24    12    13 1   
    25    12    24 2   
    26    12    40 1   
    27    13    14 2   
    28    13    16 1   
    29    14    25 1   
    30    14    29 1   
    31    15    16 ar  
    32    15    20 ar  
    33    15    25 1   
    34    16    17 ar  
    35    17    18 ar  
    36    17    31 1   
    37    18    19 ar  
    38    18    26 1   
    39    19    20 ar  
    40    19    41 1   
    41    20    42 1   
    42    21    26 2   
    43    21    31 1   
    44    21    43 1   
    45    23    30 1   
    46    23    44 1   
    47    25    45 1   
    48    27    30 2   
    49    28    30 2   
    50    29    46 1   
@<TRIPOS>SUBSTRUCTURE
     1 L1N         1 TEMP              0 ****  ****    0 ROOT
