@<TRIPOS>MOLECULE
L1N
   46    50     1     0     0
SMALL
abcg2


@<TRIPOS>ATOM
      1 C01          2.0110    14.9130    20.8920 ca         1 L1N      -0.044000
      2 C02          1.3200    15.5900    21.8970 ca         1 L1N      -0.195000
      3 C03          0.4840    16.6290    21.5240 ca         1 L1N       0.381900
      4 C05          0.9720    16.3620    19.3100 ca         1 L1N       0.605900
      5 C06          1.8440    15.3000    19.5760 ca         1 L1N      -0.199000
      6 C11          1.0200    19.4500    18.3910 ca         1 L1N      -0.310500
      7 C12          2.4140    19.4480    18.3750 ca         1 L1N       0.002500
      8 C13          3.1060    20.4370    19.0510 ca         1 L1N      -0.145000
      9 C14          2.4160    21.4470    19.7450 ca         1 L1N       0.200400
     10 C15          1.0130    21.4410    19.7270 ca         1 L1N      -0.145000
     11 C16          0.3170    20.4410    19.0710 ca         1 L1N       0.002500
     12 C18          4.1360    22.2370    21.0760 ce         1 L1N       0.567500
     13 C19          4.9570    23.2170    21.7060 cc         1 L1N      -0.266800
     14 C20          4.8610    24.6130    21.6200 cd         1 L1N       0.220000
     15 C22          6.6340    24.2140    22.9400 ca         1 L1N      -0.054200
     16 C23          6.1000    22.9650    22.5570 ca         1 L1N      -0.008800
     17 C24          6.7480    21.8290    23.0570 ca         1 L1N      -0.149000
     18 C25          7.8780    21.9670    23.8940 ca         1 L1N       0.079400
     19 C26          8.3730    23.2350    24.2440 ca         1 L1N      -0.048000
     20 C27          7.7470    24.3710    23.7650 ca         1 L1N      -0.109000
     21 C29          7.7680    19.7600    23.8530 cc         1 L1N       0.386100
     22 N04          0.3050    17.0130    20.2540 nb         1 L1N      -0.713000
     23 N07          0.7840    16.7650    17.9810 nu         1 L1N      -0.883000
     24 N17          3.0660    22.4870    20.4030 nf         1 L1N      -0.605100
     25 N21          5.8470    25.1940    22.3460 na         1 L1N      -0.274700
     26 N28          8.4260    20.7660    24.3220 nd         1 L1N      -0.520100
     27 O09          0.5100    18.2780    16.0920 o          1 L1N      -0.536500
     28 O10         -1.2480    18.2860    17.8370 o          1 L1N      -0.536500
     29 O31          3.9630    25.3080    20.9330 oh         1 L1N      -0.468100
     30 S08          0.1480    18.2150    17.4910 sy         1 L1N       1.213600
     31 S30          6.4020    20.1410    22.8340 ss         1 L1N       0.022800
     32 H1           2.6780    14.0960    21.1350 ha         1 L1N       0.120000
     33 H2           1.4290    15.3180    22.9370 ha         1 L1N       0.128000
     34 H3          -0.0720    17.1860    22.2700 h4         1 L1N       0.027100
     35 H4           2.3690    14.8060    18.7690 ha         1 L1N       0.126000
     36 H5           2.9550    18.6790    17.8400 ha         1 L1N       0.127000
     37 H6           4.1870    20.4490    19.0220 ha         1 L1N       0.124500
     38 H7           0.4800    22.2240    20.2500 ha         1 L1N       0.124500
     39 H8          -0.7630    20.4260    19.0820 ha         1 L1N       0.127000
     40 H9           4.4630    21.2010    21.2100 h4         1 L1N      -0.026200
     41 H10          9.2400    23.3060    24.8870 ha         1 L1N       0.137000
     42 H11          8.1070    25.3590    24.0210 ha         1 L1N       0.122000
     43 H12          8.0130    18.7260    24.0530 h5         1 L1N       0.060800
     44 H13          1.4090    16.3700    17.2900 hn         1 L1N       0.508000
     45 H14          5.9860    26.1900    22.4420 hn         1 L1N       0.354000
     46 H15          4.1200    26.2620    20.9990 ho         1 L1N       0.471000
@<TRIPOS>BOND
     1     1     2 ar  
     2     1     5 ar  
     3     1    32 1   
     4     2     3 ar  
     5     2    33 1   
     6     3    22 ar  
     7     3    34 1   
     8     4     5 ar  
     9     4    22 ar  
    10     4    23 1   
    11     5    35 1   
    12     6     7 ar  
    13     6    11 ar  
    14     6    30 1   
    15     7     8 ar  
    16     7    36 1   
    17     8     9 ar  
    18     8    37 1   
    19     9    10 ar  
    20     9    24 1   
    21    10    11 ar  
    22    10    38 1   
    23    11    39 1   
    24    12    13 1   
    25    12    24 2   
    26    12    40 1   
    27    13    14 2   
    28    13    16 1   
    29    14    25 1   
    30    14    29 1   
    31    15    16 ar  
    32    15    20 ar  
    33    15    25 1   
    34    16    17 ar  
    35    17    18 ar  
    36    17    31 1   
    37    18    19 ar  
    38    18    26 1   
    39    19    20 ar  
    40    19    41 1   
    41    20    42 1   
    42    21    26 2   
    43    21    31 1   
    44    21    43 1   
    45    23    30 1   
    46    23    44 1   
    47    25    45 1   
    48    27    30 2   
    49    28    30 2   
    50    29    46 1   
@<TRIPOS>SUBSTRUCTURE
     1 L1N         1 TEMP              0 ****  ****    0 ROOT
