@<TRIPOS>MOLECULE
L1Q
   26    26     1     0     0
SMALL
No Charge or Current Charge


@<TRIPOS>ATOM
      1 C4          16.3070     3.5160    13.6020 ca         1 L1Q       0.111500
      2 C5          15.8800     2.3810    14.3220 ca         1 L1Q       0.248000
      3 C6          15.3070     2.5150    15.6040 ca         1 L1Q      -0.323500
      4 C7          15.1810     3.8090    16.1570 ca         1 L1Q       0.248000
      5 C8          15.6090     4.9410    15.4340 ca         1 L1Q       0.111500
      6 N           16.1900     0.3840    16.9410 n8         1 L1Q      -1.028100
      7 C           19.1750     5.5690    13.6260 c3         1 L1Q      -0.093100
      8 O           14.1320     1.3800    17.7600 o          1 L1Q      -0.526000
      9 C1          18.0220     6.5710    13.8400 c3         1 L1Q      -0.070400
     10 C3          16.1750     4.8100    14.1480 ca         1 L1Q      -0.051300
     11 F           16.8600     3.3510    12.3750 f          1 L1Q      -0.149500
     12 F1          16.0490     1.1620    13.7590 f          1 L1Q      -0.123000
     13 F2          14.6510     4.0010    17.3860 f          1 L1Q      -0.123000
     14 F3          15.4740     6.1710    15.9870 f          1 L1Q      -0.149500
     15 O1          14.2150     0.0660    15.5780 o          1 L1Q      -0.526000
     16 S           14.7770     1.0570    16.4910 sy         1 L1Q       1.165600
     17 H1          16.0230     0.2690    17.9380 hn         1 L1Q       0.488000
     18 H2          16.0530    -0.5630    16.5940 hn         1 L1Q       0.488000
     19 H3          20.1300     6.0180    13.9270 hc         1 L1Q       0.037033
     20 H4          19.0240     4.6620    14.2230 hc         1 L1Q       0.037033
     21 H5          19.2500     5.2820    12.5700 hc         1 L1Q       0.037033
     22 H6          18.2510     7.4940    13.2930 hc         1 L1Q       0.048700
     23 H7          17.9720     6.8410    14.9020 hc         1 L1Q       0.048700
     24 H8          15.9080     6.8550    13.4890 hc         1 L1Q       0.067200
     25 H9          16.6820     5.8500    12.2970 hc         1 L1Q       0.067200
     26 C2          16.6420     6.0490    13.3750 c3         1 L1Q      -0.036100
@<TRIPOS>BOND
     1     1     2 ar  
     2     1    10 ar  
     3     1    11 1   
     4     2     3 ar  
     5     2    12 1   
     6     3     4 ar  
     7     3    16 1   
     8     4     5 ar  
     9     4    13 1   
    10     5    10 ar  
    11     5    14 1   
    12     6    16 1   
    13     6    17 1   
    14     6    18 1   
    15     7     9 1   
    16     7    19 1   
    17     7    20 1   
    18     7    21 1   
    19     8    16 2   
    20     9    22 1   
    21     9    23 1   
    22     9    26 1   
    23    10    26 1   
    24    15    16 2   
    25    24    26 1   
    26    25    26 1   
@<TRIPOS>SUBSTRUCTURE
     1 L1Q         1 TEMP              0 ****  ****    0 ROOT
