@<TRIPOS>MOLECULE
L1Q
   26    26     1     0     0
SMALL
abcg2


@<TRIPOS>ATOM
      1 C4          16.2810     3.5180    13.6380 ca         1 L1Q       0.111500
      2 C5          15.8640     2.4170    14.3570 ca         1 L1Q       0.248000
      3 C6          15.3000     2.5580    15.6190 ca         1 L1Q      -0.323500
      4 C7          15.1590     3.8430    16.1250 ca         1 L1Q       0.248000
      5 C8          15.5810     4.9330    15.3840 ca         1 L1Q       0.111500
      6 N           16.2030     0.3240    16.6800 n8         1 L1Q      -1.028100
      7 C           19.1090     5.4780    13.7750 c3         1 L1Q      -0.093100
      8 O           14.1900     1.5090    17.7490 o          1 L1Q      -0.526000
      9 C1          17.9960     6.5110    13.8750 c3         1 L1Q      -0.070400
     10 C3          16.1510     4.8080    14.1290 ca         1 L1Q      -0.051300
     11 F           16.8280     3.3130    12.4400 f          1 L1Q      -0.149500
     12 F1          16.0290     1.2120    13.8290 f          1 L1Q      -0.123000
     13 F2          14.6310     4.0790    17.3160 f          1 L1Q      -0.123000
     14 F3          15.4240     6.1450    15.9150 f          1 L1Q      -0.149500
     15 O1          13.9730     0.2930    15.5780 o          1 L1Q      -0.526000
     16 S           14.7690     1.0930    16.4880 sy         1 L1Q       1.165600
     17 H1          16.7160     0.6190    17.5040 hn         1 L1Q       0.488000
     18 H2          16.1150    -0.6850    16.6310 hn         1 L1Q       0.488000
     19 H3          20.0560     5.9000    14.1130 hc         1 L1Q       0.037033
     20 H4          18.9070     4.6030    14.3950 hc         1 L1Q       0.037033
     21 H5          19.2480     5.1380    12.7480 hc         1 L1Q       0.037033
     22 H6          18.2600     7.3910    13.2850 hc         1 L1Q       0.048700
     23 H7          17.9020     6.8540    14.9070 hc         1 L1Q       0.048700
     24 H8          15.8990     6.8080    13.4560 hc         1 L1Q       0.067200
     25 H9          16.7080     5.7700    12.3100 hc         1 L1Q       0.067200
     26 C2          16.6370     6.0090    13.3710 c3         1 L1Q      -0.036100
@<TRIPOS>BOND
     1     1     2 ar  
     2     1    10 ar  
     3     1    11 1   
     4     2     3 ar  
     5     2    12 1   
     6     3     4 ar  
     7     3    16 1   
     8     4     5 ar  
     9     4    13 1   
    10     5    10 ar  
    11     5    14 1   
    12     6    16 1   
    13     6    17 1   
    14     6    18 1   
    15     7     9 1   
    16     7    19 1   
    17     7    20 1   
    18     7    21 1   
    19     8    16 2   
    20     9    22 1   
    21     9    23 1   
    22     9    26 1   
    23    10    26 1   
    24    15    16 2   
    25    24    26 1   
    26    25    26 1   
@<TRIPOS>SUBSTRUCTURE
     1 L1Q         1 TEMP              0 ****  ****    0 ROOT
