@<TRIPOS>MOLECULE
L1S
   59    63     1     0     0
SMALL
No Charge or Current Charge


@<TRIPOS>ATOM
      1 O3          -7.5420     0.5670    -2.6840 o          1 L1S      -0.645100
      2 C4           5.3920     0.0490     0.1050 ca         1 L1S       0.413900
      3 C5           2.8520     0.1580     0.3450 c6         1 L1S       0.196800
      4 C6           1.7280    -0.6350     1.0710 c6         1 L1S       0.075000
      5 N1           4.1380    -0.6150     0.2340 nh         1 L1S      -0.762300
      6 C8          -0.8880    -1.7290    -0.1070 ca         1 L1S      -0.134600
      7 N2           1.5410    -2.0040     0.5130 n          1 L1S      -0.403800
      8 C9          -1.7810    -1.5390    -1.1820 ca         1 L1S      -0.081000
      9 C10         -3.0670    -1.0130    -0.9660 ca         1 L1S      -0.089000
     10 C11         -3.5020    -0.6770     0.3360 ca         1 L1S      -0.095900
     11 C12         -4.8470    -0.1270     0.5770 cc         1 L1S       0.468400
     12 N3          -5.7800     0.1270    -0.4240 na         1 L1S      -0.285600
     13 C13         -6.8980     0.6280     0.1700 ca         1 L1S      -0.032200
     14 C14         -8.1220     1.0430    -0.3930 ca         1 L1S      -0.159600
     15 C15         -8.3720     0.9770    -1.8870 c          1 L1S       0.632700
     16 N4          -9.5680     1.3920    -2.3520 nt         1 L1S      -0.595000
     17 C16         -9.0990     1.5230     0.5210 ca         1 L1S      -0.059000
     18 C17         -8.8290     1.5700     1.9100 ca         1 L1S      -0.152000
     19 C18         -7.5850     1.1400     2.4170 ca         1 L1S      -0.018000
     20 C19         -6.6290     0.6690     1.5090 ca         1 L1S       0.056400
     21 N5          -5.3470     0.2000     1.7870 nd         1 L1S      -0.574100
     22 C20         -2.6150    -0.8950     1.4140 ca         1 L1S      -0.089000
     23 C21         -1.3300    -1.4200     1.1980 ca         1 L1S      -0.081000
     24 O2           0.6500    -3.1240    -1.2790 o          1 L1S      -0.586100
     25 C22          2.8190    -2.7660     0.4990 c6         1 L1S       0.075000
     26 C23          3.9460    -2.0220    -0.2630 c6         1 L1S       0.196800
     27 N            5.4150     1.3780     0.3340 nb         1 L1S      -0.262500
     28 C3           6.6000     2.0040     0.2150 ca         1 L1S       0.211400
     29 N6           6.4610    -0.7030    -0.2320 nb         1 L1S      -0.262500
     30 C24          7.6450    -0.0750    -0.3500 ca         1 L1S       0.211400
     31 C2           7.7680     1.3080    -0.1320 ca         1 L1S      -0.334600
     32 C1           9.0730     2.0210    -0.2580 c          1 L1S       0.630700
     33 O1           9.1890     3.2230    -0.0700 o          1 L1S      -0.497000
     34 O           10.1120     1.1980    -0.6030 os         1 L1S      -0.444100
     35 C           11.4200     1.7820    -0.7520 c3         1 L1S       0.154900
     36 H1           2.4960     0.4280    -0.6610 h1         1 L1S       0.074950
     37 H2           2.9920     1.0980     0.8990 h1         1 L1S       0.074950
     38 H3           1.9840    -0.7190     2.1370 h1         1 L1S       0.070700
     39 H4           0.8050    -0.0450     1.0040 h1         1 L1S       0.070700
     40 H5          -1.4740    -1.7900    -2.1950 ha         1 L1S       0.127500
     41 H6          -3.7190    -0.8730    -1.8250 ha         1 L1S       0.130500
     42 H7          -5.6530    -0.0290    -1.4140 hn         1 L1S       0.388000
     43 H8          -9.7470     1.3530    -3.3440 hn         1 L1S       0.318000
     44 H9         -10.2700     1.7340    -1.7160 hn         1 L1S       0.318000
     45 H10        -10.0710     1.8630     0.1740 ha         1 L1S       0.104000
     46 H11         -9.5890     1.9400     2.5940 ha         1 L1S       0.118000
     47 H12         -7.3710     1.1740     3.4820 ha         1 L1S       0.132000
     48 H14         -2.9230    -0.6640     2.4320 ha         1 L1S       0.130500
     49 H15         -0.6860    -1.6010     2.0560 ha         1 L1S       0.127500
     50 H16          3.1430    -2.9260     1.5370 h1         1 L1S       0.070700
     51 H17          2.6720    -3.7610     0.0560 h1         1 L1S       0.070700
     52 H18          3.7000    -2.0090    -1.3360 h1         1 L1S       0.074950
     53 H19          4.8610    -2.6220    -0.1500 h1         1 L1S       0.074950
     54 H20          6.6040     3.0770     0.4030 h4         1 L1S       0.040600
     55 H21          8.4950    -0.7000    -0.6230 h4         1 L1S       0.040600
     56 H22         11.4190     2.5490    -1.5390 h1         1 L1S       0.049367
     57 H23         11.7510     2.2460     0.1860 h1         1 L1S       0.049367
     58 H24         12.1520     1.0140    -1.0280 h1         1 L1S       0.049367
     59 C7           0.4830    -2.3200    -0.3690 c          1 L1S       0.614700
@<TRIPOS>BOND
     1     1    15 2   
     2     2     5 1   
     3     2    27 ar  
     4     2    29 ar  
     5     3     4 1   
     6     3     5 1   
     7     3    36 1   
     8     3    37 1   
     9     4     7 1   
    10     4    38 1   
    11     4    39 1   
    12     5    26 1   
    13     6     8 ar  
    14     6    23 ar  
    15     6    59 1   
    16     7    25 1   
    17     7    59 1   
    18     8     9 ar  
    19     8    40 1   
    20     9    10 ar  
    21     9    41 1   
    22    10    11 1   
    23    10    22 ar  
    24    11    12 1   
    25    11    21 2   
    26    12    13 1   
    27    12    42 1   
    28    13    14 ar  
    29    13    20 ar  
    30    14    15 1   
    31    14    17 ar  
    32    15    16 1   
    33    16    43 1   
    34    16    44 1   
    35    17    18 ar  
    36    17    45 1   
    37    18    19 ar  
    38    18    46 1   
    39    19    20 ar  
    40    19    47 1   
    41    20    21 1   
    42    22    23 ar  
    43    22    48 1   
    44    23    49 1   
    45    24    59 2   
    46    25    26 1   
    47    25    50 1   
    48    25    51 1   
    49    26    52 1   
    50    26    53 1   
    51    27    28 ar  
    52    28    31 ar  
    53    28    54 1   
    54    29    30 ar  
    55    30    31 ar  
    56    30    55 1   
    57    31    32 1   
    58    32    33 2   
    59    32    34 1   
    60    34    35 1   
    61    35    56 1   
    62    35    57 1   
    63    35    58 1   
@<TRIPOS>SUBSTRUCTURE
     1 L1S         1 TEMP              0 ****  ****    0 ROOT
