@<TRIPOS>MOLECULE
L1S
   59    63     1     0     0
SMALL
bcc


@<TRIPOS>ATOM
      1 O3          -7.0700     0.6190    -2.5460 o          1 L1S      -0.645100
      2 C4           5.0370     0.0350    -0.3370 ca         1 L1S       0.939900
      3 C5           2.5830     0.0520    -0.2850 c6         1 L1S       0.196800
      4 C6           1.7240    -0.6410     0.7650 c6         1 L1S       0.075000
      5 N1           3.8640    -0.6140    -0.4180 nh         1 L1S      -0.762300
      6 C8          -0.8100    -1.9600     0.1840 ca         1 L1S      -0.134600
      7 N2           1.6080    -2.0590     0.4690 n          1 L1S      -0.470800
      8 C9          -1.6430    -1.7780    -0.9140 ca         1 L1S      -0.099000
      9 C10         -2.8880    -1.1930    -0.7580 ca         1 L1S      -0.107000
     10 C11         -3.3380    -0.8100     0.5050 ca         1 L1S      -0.095900
     11 C12         -4.6470    -0.1930     0.7010 cc         1 L1S       0.468400
     12 N3          -5.4860     0.1090    -0.3270 na         1 L1S      -0.235300
     13 C13         -6.6050     0.6740     0.2040 ca         1 L1S      -0.032200
     14 C14         -7.7780     1.1770    -0.3680 ca         1 L1S      -0.159600
     15 C15         -7.9410     1.1310    -1.8460 c          1 L1S       0.699700
     16 N4          -9.0520     1.6630    -2.3680 nt         1 L1S      -0.662000
     17 C16         -8.7160     1.6850     0.5250 ca         1 L1S      -0.077000
     18 C17         -8.4990     1.6950     1.9070 ca         1 L1S      -0.170000
     19 C18         -7.3320     1.1990     2.4580 ca         1 L1S      -0.036000
     20 C19         -6.3730     0.6820     1.5920 ca         1 L1S       0.056400
     21 N5          -5.1470     0.1360     1.8640 nd         1 L1S      -0.574100
     22 C20         -2.5110    -1.0230     1.6090 ca         1 L1S      -0.107000
     23 C21         -1.2580    -1.5850     1.4490 ca         1 L1S      -0.099000
     24 O2           0.5120    -3.7530    -0.5590 o          1 L1S      -0.586100
     25 C22          2.9010    -2.7120     0.3600 c6         1 L1S       0.075000
     26 C23          3.7640    -2.0350    -0.6950 c6         1 L1S       0.196800
     27 N            5.0060     1.3590    -0.1000 nb         1 L1S      -0.788500
     28 C3           6.1590     1.9800    -0.0250 ca         1 L1S       0.539700
     29 N6           6.1620    -0.6800    -0.5010 nb         1 L1S      -0.788500
     30 C24          7.3040    -0.0350    -0.4210 ca         1 L1S       0.539700
     31 C2           7.3860     1.3360    -0.1790 ca         1 L1S      -0.465200
     32 C1           8.6390     2.0920    -0.0860 c          1 L1S       0.679700
     33 O1           8.6950     3.2790     0.1450 o          1 L1S      -0.546000
     34 O            9.7060     1.3320    -0.2840 os         1 L1S      -0.420900
     35 C           10.9870     1.9570    -0.2100 c3         1 L1S       0.131700
     36 H1           2.0640     0.0300    -1.2500 h1         1 L1S       0.074950
     37 H2           2.7320     1.0900    -0.0080 h1         1 L1S       0.074950
     38 H3           2.1720    -0.5170     1.7550 h1         1 L1S       0.070700
     39 H4           0.7490    -0.1640     0.7870 h1         1 L1S       0.070700
     40 H5          -1.3160    -2.0770    -1.9010 ha         1 L1S       0.145500
     41 H6          -3.5010    -1.0530    -1.6390 ha         1 L1S       0.148500
     42 H7          -5.3420    -0.0340    -1.3150 hn         1 L1S       0.337700
     43 H8          -9.1920     1.6410    -3.3650 hn         1 L1S       0.318000
     44 H9          -9.7670     2.1070    -1.8200 hn         1 L1S       0.318000
     45 H10         -9.6550     2.0890     0.1690 ha         1 L1S       0.122000
     46 H11         -9.2670     2.1020     2.5510 ha         1 L1S       0.136000
     47 H12         -7.1670     1.2100     3.5280 ha         1 L1S       0.150000
     48 H14         -2.8530    -0.7430     2.5960 ha         1 L1S       0.148500
     49 H15         -0.6290    -1.7360     2.3180 ha         1 L1S       0.145500
     50 H16          3.3990    -2.6570     1.3320 h1         1 L1S       0.070700
     51 H17          2.7660    -3.7600     0.1100 h1         1 L1S       0.070700
     52 H18          3.3230    -2.1800    -1.6860 h1         1 L1S       0.074950
     53 H19          4.7550    -2.4790    -0.7020 h1         1 L1S       0.074950
     54 H20          6.1200     3.0480     0.1650 h4         1 L1S       0.040600
     55 H21          8.1980    -0.6350    -0.5570 h4         1 L1S       0.040600
     56 H22         11.0910     2.7460    -0.9540 h1         1 L1S       0.049367
     57 H23         11.1710     2.3700     0.7810 h1         1 L1S       0.049367
     58 H24         11.7110     1.1730    -0.4130 h1         1 L1S       0.049367
     59 C7           0.4980    -2.6600    -0.0110 c          1 L1S       0.681700
@<TRIPOS>BOND
     1     1    15 2   
     2     2     5 1   
     3     2    27 ar  
     4     2    29 ar  
     5     3     4 1   
     6     3     5 1   
     7     3    36 1   
     8     3    37 1   
     9     4     7 1   
    10     4    38 1   
    11     4    39 1   
    12     5    26 1   
    13     6     8 ar  
    14     6    23 ar  
    15     6    59 1   
    16     7    25 1   
    17     7    59 1   
    18     8     9 ar  
    19     8    40 1   
    20     9    10 ar  
    21     9    41 1   
    22    10    11 1   
    23    10    22 ar  
    24    11    12 1   
    25    11    21 2   
    26    12    13 1   
    27    12    42 1   
    28    13    14 ar  
    29    13    20 ar  
    30    14    15 1   
    31    14    17 ar  
    32    15    16 1   
    33    16    43 1   
    34    16    44 1   
    35    17    18 ar  
    36    17    45 1   
    37    18    19 ar  
    38    18    46 1   
    39    19    20 ar  
    40    19    47 1   
    41    20    21 1   
    42    22    23 ar  
    43    22    48 1   
    44    23    49 1   
    45    24    59 2   
    46    25    26 1   
    47    25    50 1   
    48    25    51 1   
    49    26    52 1   
    50    26    53 1   
    51    27    28 ar  
    52    28    31 ar  
    53    28    54 1   
    54    29    30 ar  
    55    30    31 ar  
    56    30    55 1   
    57    31    32 1   
    58    32    33 2   
    59    32    34 1   
    60    34    35 1   
    61    35    56 1   
    62    35    57 1   
    63    35    58 1   
@<TRIPOS>SUBSTRUCTURE
     1 L1S         1 TEMP              0 ****  ****    0 ROOT
