@<TRIPOS>MOLECULE
L1T
   27    28     1     0     0
SMALL
No Charge or Current Charge


@<TRIPOS>ATOM
      1 N1         -20.1480   -15.5910    -5.9680 nv         1 L1T      -1.065200
      2 C4         -20.3570   -17.7880    -6.9280 cc         1 L1T      -0.293900
      3 C5         -20.7420   -16.3920    -6.8670 ce         1 L1T       0.693800
      4 C6         -20.1020   -20.1940    -7.5650 cc         1 L1T      -0.178000
      5 C7         -20.0850   -21.5260    -8.1680 ca         1 L1T      -0.012000
      6 C8         -19.6860   -21.6810    -9.5090 ca         1 L1T      -0.097500
      7 C10        -20.0750   -24.0810    -9.3670 ca         1 L1T      -0.106000
      8 C11        -20.4850   -23.9320    -8.0310 ca         1 L1T      -0.110500
      9 C12        -20.4930   -22.6580    -7.4350 ca         1 L1T      -0.097500
     10 C2         -19.4210   -19.9000    -6.4040 cd         1 L1T      -0.096300
     11 C3         -19.5900   -18.5290    -6.0510 cd         1 L1T      -0.112000
     12 C9         -19.6770   -22.9550   -10.1060 ca         1 L1T      -0.110500
     13 N2         -21.6990   -15.9230    -7.5490 n2         1 L1T      -0.843100
     14 S1         -20.9170   -18.7990    -8.2570 ss         1 L1T       0.327000
     15 H15        -19.2920   -15.9680    -5.5820 hn         1 L1T       0.461000
     16 H81        -19.3750   -20.8150   -10.0880 ha         1 L1T       0.117000
     17 H101       -20.0690   -25.0660    -9.8280 ha         1 L1T       0.113000
     18 H12        -17.8490   -20.3130    -4.9760 hc         1 L1T       0.043033
     19 H13        -19.2080   -21.4440    -4.9070 hc         1 L1T       0.043033
     20 H11        -18.0260   -21.5480    -6.2260 hc         1 L1T       0.043033
     21 H111       -20.8010   -24.8010    -7.4590 ha         1 L1T       0.113500
     22 H121       -20.8260   -22.5500    -6.4060 ha         1 L1T       0.117000
     23 H31        -19.1430   -18.1060    -5.1560 ha         1 L1T       0.128000
     24 H91        -19.3620   -23.0670   -11.1420 ha         1 L1T       0.113500
     25 H1         -21.9710   -15.0300    -7.1240 hn         1 L1T       0.377400
     26 H14        -20.1160   -14.6070    -6.2050 hn         1 L1T       0.461000
     27 C1         -18.5830   -20.8530    -5.5860 c3         1 L1T      -0.027800
@<TRIPOS>BOND
     1     1     3 1   
     2     1    15 1   
     3     1    26 1   
     4     2     3 1   
     5     2    11 2   
     6     2    14 1   
     7     3    13 2   
     8     4     5 1   
     9     4    10 2   
    10     4    14 1   
    11     5     6 ar  
    12     5     9 ar  
    13     6    12 ar  
    14     6    16 1   
    15     7     8 ar  
    16     7    12 ar  
    17     7    17 1   
    18     8     9 ar  
    19     8    21 1   
    20     9    22 1   
    21    10    11 1   
    22    10    27 1   
    23    11    23 1   
    24    12    24 1   
    25    13    25 1   
    26    18    27 1   
    27    19    27 1   
    28    20    27 1   
@<TRIPOS>SUBSTRUCTURE
     1 L1T         1 TEMP              0 ****  ****    0 ROOT
