@<TRIPOS>MOLECULE
L1T
   27    28     1     0     0
SMALL
abcg2


@<TRIPOS>ATOM
      1 N1         -20.2070   -15.6560    -5.9280 nv         1 L1T      -1.065200
      2 C4         -20.3010   -17.8490    -6.8930 cc         1 L1T      -0.293900
      3 C5         -20.7070   -16.4370    -6.9290 ce         1 L1T       0.693800
      4 C6         -20.0050   -20.2390    -7.4660 cc         1 L1T      -0.178000
      5 C7         -20.0470   -21.5320    -8.1540 ca         1 L1T      -0.012000
      6 C8         -19.8580   -21.6110    -9.5370 ca         1 L1T      -0.097500
      7 C10        -20.1340   -24.0010    -9.4710 ca         1 L1T      -0.106000
      8 C11        -20.3260   -23.9340    -8.0970 ca         1 L1T      -0.110500
      9 C12        -20.2880   -22.7110    -7.4440 ca         1 L1T      -0.097500
     10 C2         -19.4060   -19.9130    -6.2730 cd         1 L1T      -0.096300
     11 C3         -19.5870   -18.5390    -5.9580 cd         1 L1T      -0.112000
     12 C9         -19.9040   -22.8340   -10.1880 ca         1 L1T      -0.110500
     13 N2         -21.5210   -16.0810    -7.8480 n2         1 L1T      -0.843100
     14 S1         -20.7820   -18.8740    -8.1830 ss         1 L1T       0.327000
     15 H15        -19.3230   -15.9080    -5.5180 hn         1 L1T       0.461000
     16 H81        -19.6590   -20.7120   -10.1070 ha         1 L1T       0.117000
     17 H101       -20.1660   -24.9560    -9.9790 ha         1 L1T       0.113000
     18 H12        -17.8230   -20.3110    -4.8910 hc         1 L1T       0.043033
     19 H13        -19.2570   -21.2890    -4.6240 hc         1 L1T       0.043033
     20 H11        -18.1830   -21.6610    -5.9650 hc         1 L1T       0.043033
     21 H111       -20.5170   -24.8360    -7.5310 ha         1 L1T       0.113500
     22 H121       -20.4680   -22.6710    -6.3780 ha         1 L1T       0.117000
     23 H31        -19.1860   -18.0960    -5.0550 ha         1 L1T       0.128000
     24 H91        -19.7550   -22.8760   -11.2590 ha         1 L1T       0.113500
     25 H1         -21.7270   -15.0870    -7.8010 hn         1 L1T       0.377400
     26 H14        -20.3350   -14.6600    -6.0190 hn         1 L1T       0.461000
     27 C1         -18.6270   -20.8450    -5.3970 c3         1 L1T      -0.027800
@<TRIPOS>BOND
     1     1     3 1   
     2     1    15 1   
     3     1    26 1   
     4     2     3 1   
     5     2    11 2   
     6     2    14 1   
     7     3    13 2   
     8     4     5 1   
     9     4    10 2   
    10     4    14 1   
    11     5     6 ar  
    12     5     9 ar  
    13     6    12 ar  
    14     6    16 1   
    15     7     8 ar  
    16     7    12 ar  
    17     7    17 1   
    18     8     9 ar  
    19     8    21 1   
    20     9    22 1   
    21    10    11 1   
    22    10    27 1   
    23    11    23 1   
    24    12    24 1   
    25    13    25 1   
    26    18    27 1   
    27    19    27 1   
    28    20    27 1   
@<TRIPOS>SUBSTRUCTURE
     1 L1T         1 TEMP              0 ****  ****    0 ROOT
