@<TRIPOS>MOLECULE
L1V
   34    35     1     0     0
SMALL
No Charge or Current Charge


@<TRIPOS>ATOM
      1 C14          3.1450     2.6820     0.5730 c5         1 L1V      -0.083400
      2 C11          1.2750     1.0870     0.2440 c5         1 L1V      -0.168700
      3 C12          2.6670     0.4270    -0.0110 c5         1 L1V      -0.027700
      4 C01         -1.7000    -0.5430    -1.3740 ca         1 L1V      -0.098000
      5 C02         -2.9890    -0.9910    -1.0380 ca         1 L1V      -0.111500
      6 C03         -3.6660    -0.4770     0.0920 ca         1 L1V      -0.118600
      7 C04         -3.0110     0.5050     0.8720 ca         1 L1V      -0.111500
      8 C05         -1.7210     0.9520     0.5370 ca         1 L1V      -0.098000
      9 C07         -5.0640    -0.9620     0.4560 c          1 L1V       0.713600
     10 O08         -5.6120    -0.4880     1.4420 o          1 L1V      -0.727500
     11 C09          0.3380     0.8930    -0.9860 c          1 L1V       0.593700
     12 C16          2.6810    -1.1130     0.1910 c3         1 L1V      -0.198400
     13 O19          4.3350    -1.9910    -1.2680 o          1 L1V      -0.750500
     14 O20         -5.5940    -1.8100    -0.2490 o          1 L1V      -0.727500
     15 C06         -1.0450     0.4230    -0.5840 ca         1 L1V      -0.195600
     16 C13          1.5940     2.6100     0.4480 c5         1 L1V      -0.065400
     17 C15          3.5320     1.2400     0.9860 c5         1 L1V      -0.070400
     18 C17          4.0720    -1.7010    -0.1110 c          1 L1V       0.717000
     19 O10          0.6400     1.0980    -2.1580 o          1 L1V      -0.543100
     20 O18          4.8640    -1.8250     0.8110 o          1 L1V      -0.750500
     21 H1           3.6050     2.9540    -0.3840 hc         1 L1V       0.021700
     22 H2           3.4690     3.4260     1.3090 hc         1 L1V       0.021700
     23 H3           0.8120     0.6810     1.1500 hc         1 L1V       0.058700
     24 H4           3.0100     0.6130    -1.0390 hc         1 L1V       0.078700
     25 H5          -1.2050    -0.9560    -2.2500 ha         1 L1V       0.100500
     26 H6          -3.4640    -1.7430    -1.6650 ha         1 L1V       0.122000
     27 H7          -3.5040     0.9310     1.7430 ha         1 L1V       0.122000
     28 H8          -1.2600     1.7240     1.1490 ha         1 L1V       0.100500
     29 H10          2.4080    -1.3010     1.2360 hc         1 L1V       0.023200
     30 H11          1.9520    -1.5130    -0.5250 hc         1 L1V       0.023200
     31 H12          1.1060     2.9870     1.3540 hc         1 L1V       0.031200
     32 H13          1.2390     3.2340    -0.3800 hc         1 L1V       0.031200
     33 H14          4.6050     1.0550     0.8650 hc         1 L1V       0.043200
     34 H15          3.2730     1.0280     2.0300 hc         1 L1V       0.043200
@<TRIPOS>BOND
     1     1    16 1   
     2     1    17 1   
     3     1    21 1   
     4     1    22 1   
     5     2     3 1   
     6     2    11 1   
     7     2    16 1   
     8     2    23 1   
     9     3    12 1   
    10     3    17 1   
    11     3    24 1   
    12     4     5 ar  
    13     4    15 ar  
    14     4    25 1   
    15     5     6 ar  
    16     5    26 1   
    17     6     7 ar  
    18     6     9 1   
    19     7     8 ar  
    20     7    27 1   
    21     8    15 ar  
    22     8    28 1   
    23     9    10 1   
    24     9    14 1   
    25    11    15 1   
    26    11    19 2   
    27    12    18 1   
    28    12    29 1   
    29    12    30 1   
    30    13    18 1   
    31    16    31 1   
    32    16    32 1   
    33    17    33 1   
    34    17    34 1   
    35    18    20 1   
@<TRIPOS>SUBSTRUCTURE
     1 L1V         1 TEMP              0 ****  ****    0 ROOT
