@<TRIPOS>MOLECULE
L1V
   34    35     1     0     0
SMALL
abcg2


@<TRIPOS>ATOM
      1 C14          2.6360     2.7310     0.3250 c5         1 L1V      -0.083400
      2 C11          1.3450     0.6350     0.2330 c5         1 L1V      -0.168700
      3 C12          2.8310     0.3680    -0.0270 c5         1 L1V      -0.027700
      4 C01         -1.9520    -0.4570    -1.4290 ca         1 L1V      -0.098000
      5 C02         -3.3100    -0.5040    -1.1730 ca         1 L1V      -0.111500
      6 C03         -3.8200    -0.1150     0.0650 ca         1 L1V      -0.118600
      7 C04         -2.9260     0.3220     1.0380 ca         1 L1V      -0.111500
      8 C05         -1.5640     0.3740     0.7860 ca         1 L1V      -0.098000
      9 C07         -5.3190    -0.1670     0.3480 c          1 L1V       0.713600
     10 O08         -5.6810     0.1960     1.4820 o          1 L1V      -0.727500
     11 C09          0.4020     0.0260    -0.7740 c          1 L1V       0.593700
     12 C16          3.2890    -1.0080     0.4230 c3         1 L1V      -0.198400
     13 O19          5.2810    -0.8070    -0.8750 o          1 L1V      -0.750500
     14 O20         -6.0450    -0.5650    -0.5810 o          1 L1V      -0.727500
     15 C06         -1.0550    -0.0150    -0.4530 ca         1 L1V      -0.195600
     16 C13          1.1960     2.1850     0.2770 c5         1 L1V      -0.065400
     17 C15          3.5000     1.5310     0.7000 c5         1 L1V      -0.070400
     18 C17          4.7650    -1.3350     0.1310 c          1 L1V       0.717000
     19 O10          0.7970    -0.3950    -1.8430 o          1 L1V      -0.543100
     20 O18          5.3240    -2.1380     0.9070 o          1 L1V      -0.750500
     21 H1           2.9290     3.0990    -0.6610 hc         1 L1V       0.021700
     22 H2           2.7360     3.5660     1.0190 hc         1 L1V       0.021700
     23 H3           1.0980     0.2380     1.2230 hc         1 L1V       0.058700
     24 H4           3.0330     0.4770    -1.0960 hc         1 L1V       0.078700
     25 H5          -1.5800    -0.7660    -2.3970 ha         1 L1V       0.100500
     26 H6          -3.9880    -0.8470    -1.9430 ha         1 L1V       0.122000
     27 H7          -3.3010     0.6280     2.0060 ha         1 L1V       0.122000
     28 H8          -0.9070     0.7170     1.5740 ha         1 L1V       0.100500
     29 H10          3.0880    -1.1310     1.4920 hc         1 L1V       0.023200
     30 H11          2.6880    -1.7760    -0.0810 hc         1 L1V       0.023200
     31 H12          0.6250     2.4870     1.1540 hc         1 L1V       0.031200
     32 H13          0.6570     2.5710    -0.5910 hc         1 L1V       0.031200
     33 H14          4.5480     1.6530     0.4230 hc         1 L1V       0.043200
     34 H15          3.4650     1.3610     1.7830 hc         1 L1V       0.043200
@<TRIPOS>BOND
     1     1    16 1   
     2     1    17 1   
     3     1    21 1   
     4     1    22 1   
     5     2     3 1   
     6     2    11 1   
     7     2    16 1   
     8     2    23 1   
     9     3    12 1   
    10     3    17 1   
    11     3    24 1   
    12     4     5 ar  
    13     4    15 ar  
    14     4    25 1   
    15     5     6 ar  
    16     5    26 1   
    17     6     7 ar  
    18     6     9 1   
    19     7     8 ar  
    20     7    27 1   
    21     8    15 ar  
    22     8    28 1   
    23     9    10 1   
    24     9    14 1   
    25    11    15 1   
    26    11    19 2   
    27    12    18 1   
    28    12    29 1   
    29    12    30 1   
    30    13    18 1   
    31    16    31 1   
    32    16    32 1   
    33    17    33 1   
    34    17    34 1   
    35    18    20 1   
@<TRIPOS>SUBSTRUCTURE
     1 L1V         1 TEMP              0 ****  ****    0 ROOT
