@<TRIPOS>MOLECULE
L1W
   87    93     1     0     0
SMALL
bcc


@<TRIPOS>ATOM
      1 CAA         -6.0260     0.6390     1.2840 cc         1 L1W       0.355300
      2 CAB         -7.0820    -0.2990     1.6590 c          1 L1W       0.564200
      3 CAD         -5.7210    -1.9710     0.5410 cc         1 L1W       0.085400
      4 CAE         -4.7480    -1.0380     0.3120 cd         1 L1W       0.091400
      5 CAG         -5.7130    -3.3780     0.1030 ca         1 L1W      -0.083800
      6 CAH         -3.4430    -1.3080    -0.3230 ca         1 L1W      -0.028800
      7 CAI         -5.9240    -4.4010     1.0260 ca         1 L1W      -0.101500
      8 CAJ         -5.9370    -5.7240     0.6090 ca         1 L1W      -0.130000
      9 CAK         -5.7490    -6.0340    -0.7310 ca         1 L1W      -0.111000
     10 CAL         -5.5500    -5.0150    -1.6550 ca         1 L1W      -0.130000
     11 CAM         -5.5320    -3.6930    -1.2420 ca         1 L1W      -0.101500
     12 CAN         -2.8530    -0.3170    -1.1120 ca         1 L1W      -0.108500
     13 CAO         -1.6190    -0.5210    -1.7030 ca         1 L1W      -0.121500
     14 CAP         -0.9280    -1.7180    -1.5230 ca         1 L1W      -0.082300
     15 CAQ         -1.5030    -2.6930    -0.7180 ca         1 L1W      -0.121500
     16 CAR         -2.7400    -2.4940    -0.1230 ca         1 L1W      -0.108500
     17 CAS          0.4100    -1.9310    -2.1810 c3         1 L1W       0.218100
     18 CAU          1.7240    -0.8220    -0.5040 c6         1 L1W       0.170800
     19 CAV          2.5500     0.4160    -0.1920 c6         1 L1W      -0.091900
     20 CAW          3.7630     0.4740    -1.1130 c6         1 L1W       0.136700
     21 CAX          3.3390     0.3780    -2.5740 c6         1 L1W      -0.091900
     22 CAY          2.4830    -0.8650    -2.7750 c6         1 L1W       0.170800
     23 CBA          4.2820     2.9360    -1.0300 c          1 L1W       0.802500
     24 CBC          6.3540     2.8420    -0.1320 ca         1 L1W      -0.022400
     25 CBD          5.8850     1.5350    -0.2710 ca         1 L1W       0.034600
     26 CBE          7.6000     3.0890     0.4070 ca         1 L1W      -0.100000
     27 CBF          8.3600     1.9980     0.8080 ca         1 L1W      -0.189000
     28 CBG          7.8910     0.6860     0.6770 ca         1 L1W       0.075600
     29 CBH          6.6300     0.4400     0.1240 ca         1 L1W      -0.155000
     30 CBJ          8.5900    -1.6760     1.0930 c          1 L1W       0.672100
     31 CBK          9.7700    -2.4350     1.6650 c3         1 L1W      -0.158400
     32 CBL          9.4450    -3.8770     2.0120 c3         1 L1W      -0.077100
     33 CBP         -6.2400     2.0860     1.6280 c3         1 L1W      -0.046400
     34 CBQ         -5.1370     2.9800     1.1460 ca         1 L1W      -0.104300
     35 CBR         -4.1050     3.3730     1.9900 ca         1 L1W      -0.075000
     36 CBS         -3.0660     4.1750     1.5430 ca         1 L1W      -0.194000
     37 CBT         -3.0390     4.5980     0.2180 ca         1 L1W       0.142100
     38 CBU         -4.0640     4.2140    -0.6420 ca         1 L1W      -0.194000
     39 CBV         -5.0960     3.4140    -0.1740 ca         1 L1W      -0.075000
     40 NAC         -6.8360    -1.5690     1.2160 ns         1 L1W      -0.424100
     41 NAF         -4.9610     0.2590     0.6730 nd         1 L1W      -0.512300
     42 NAT          1.3280    -0.8480    -1.8990 n3         1 L1W      -0.721600
     43 NAZ          4.6240     1.6130    -0.8340 n          1 L1W      -0.359000
     44 NBB          5.3600     3.6680    -0.6070 ns         1 L1W      -0.456100
     45 OBM          7.6130    -2.2350     0.6230 o          1 L1W      -0.583100
     46 OBN          3.2360     3.3690    -1.4820 o          1 L1W      -0.637500
     47 OBO         -8.0960    -0.0070     2.2790 o          1 L1W      -0.621500
     48 OBW         -2.0090     5.3780    -0.1770 oh         1 L1W      -0.494100
     49 H2          -6.0580    -4.1690     2.0760 ha         1 L1W       0.142000
     50 H3          -6.0910    -6.5130     1.3340 ha         1 L1W       0.137500
     51 H4          -5.7600    -7.0660    -1.0550 ha         1 L1W       0.136000
     52 H5          -5.4140    -5.2500    -2.7030 ha         1 L1W       0.137500
     53 H6          -5.3840    -2.9020    -1.9660 ha         1 L1W       0.142000
     54 H7          -3.3660     0.6260    -1.2550 ha         1 L1W       0.141000
     55 H8          -1.1760     0.2620    -2.3060 ha         1 L1W       0.137500
     56 H9          -0.9720    -3.6210    -0.5360 ha         1 L1W       0.137500
     57 H10         -3.1410    -3.2650     0.5210 ha         1 L1W       0.141000
     58 H11          0.8130    -2.9130    -1.8820 h1         1 L1W       0.036200
     59 H12          0.2690    -1.9760    -3.2650 h1         1 L1W       0.036200
     60 H13          2.2960    -1.7270    -0.2300 h1         1 L1W       0.034200
     61 H14          0.8300    -0.8210     0.1220 h1         1 L1W       0.034200
     62 H15          1.9310     1.3060    -0.3210 hc         1 L1W       0.065700
     63 H16          2.8740     0.3850     0.8510 hc         1 L1W       0.065700
     64 H17          4.3750    -0.4070    -0.9050 h1         1 L1W       0.057700
     65 H18          2.7700     1.2600    -2.8690 hc         1 L1W       0.065700
     66 H19          4.2210     0.3230    -3.2150 hc         1 L1W       0.065700
     67 H20          2.1370    -0.9000    -3.8100 h1         1 L1W       0.034200
     68 H21          3.1040    -1.7660    -2.6200 h1         1 L1W       0.034200
     69 H22          7.9790     4.0950     0.5220 ha         1 L1W       0.140000
     70 H23          9.3390     2.1750     1.2360 ha         1 L1W       0.129000
     71 H24          6.2550    -0.5640     0.0150 ha         1 L1W       0.176000
     72 H25         10.5740    -2.4000     0.9230 hc         1 L1W       0.056700
     73 H26         10.1530    -1.9090     2.5430 hc         1 L1W       0.056700
     74 H27          8.6790    -3.9420     2.7840 hc         1 L1W       0.044700
     75 H28          9.0950    -4.4320     1.1430 hc         1 L1W       0.044700
     76 H29         10.3360    -4.3790     2.3880 hc         1 L1W       0.044700
     77 H30         -7.2010     2.3990     1.2050 hc         1 L1W       0.069700
     78 H31         -6.3620     2.1750     2.7120 hc         1 L1W       0.069700
     79 H32         -4.1090     3.0510     3.0260 ha         1 L1W       0.128000
     80 H33         -2.2760     4.4750     2.2210 ha         1 L1W       0.136500
     81 H34         -4.0620     4.5390    -1.6770 ha         1 L1W       0.136500
     82 H35         -5.8840     3.1260    -0.8600 ha         1 L1W       0.128000
     83 H37          5.3840     4.6750    -0.6340 hn         1 L1W       0.353500
     84 H38          9.5990     0.0020     1.5540 hn         1 L1W       0.314500
     85 H39         -2.1080     5.6170    -1.1050 ho         1 L1W       0.424000
     86 H1          -7.5660    -2.2530     1.3770 hn         1 L1W       0.331500
     87 NBI          8.7410    -0.3280     1.1370 ns         1 L1W      -0.474100
@<TRIPOS>BOND
     1     1     2 1   
     2     1    33 1   
     3     1    41 2   
     4     2    40 1   
     5     2    47 2   
     6     3     4 2   
     7     3     5 1   
     8     3    40 1   
     9     4     6 1   
    10     4    41 1   
    11     5     7 ar  
    12     5    11 ar  
    13     6    12 ar  
    14     6    16 ar  
    15     7     8 ar  
    16     7    49 1   
    17     8     9 ar  
    18     8    50 1   
    19     9    10 ar  
    20     9    51 1   
    21    10    11 ar  
    22    10    52 1   
    23    11    53 1   
    24    12    13 ar  
    25    12    54 1   
    26    13    14 ar  
    27    13    55 1   
    28    14    15 ar  
    29    14    17 1   
    30    15    16 ar  
    31    15    56 1   
    32    16    57 1   
    33    17    42 1   
    34    17    58 1   
    35    17    59 1   
    36    18    19 1   
    37    18    42 1   
    38    18    60 1   
    39    18    61 1   
    40    19    20 1   
    41    19    62 1   
    42    19    63 1   
    43    20    21 1   
    44    20    43 1   
    45    20    64 1   
    46    21    22 1   
    47    21    65 1   
    48    21    66 1   
    49    22    42 1   
    50    22    67 1   
    51    22    68 1   
    52    23    43 1   
    53    23    44 1   
    54    23    46 2   
    55    24    25 ar  
    56    24    26 ar  
    57    24    44 1   
    58    25    29 ar  
    59    25    43 1   
    60    26    27 ar  
    61    26    69 1   
    62    27    28 ar  
    63    27    70 1   
    64    28    29 ar  
    65    28    87 1   
    66    29    71 1   
    67    30    31 1   
    68    30    45 2   
    69    30    87 1   
    70    31    32 1   
    71    31    72 1   
    72    31    73 1   
    73    32    74 1   
    74    32    75 1   
    75    32    76 1   
    76    33    34 1   
    77    33    77 1   
    78    33    78 1   
    79    34    35 ar  
    80    34    39 ar  
    81    35    36 ar  
    82    35    79 1   
    83    36    37 ar  
    84    36    80 1   
    85    37    38 ar  
    86    37    48 1   
    87    38    39 ar  
    88    38    81 1   
    89    39    82 1   
    90    40    86 1   
    91    44    83 1   
    92    48    85 1   
    93    84    87 1   
@<TRIPOS>SUBSTRUCTURE
     1 L1W         1 TEMP              0 ****  ****    0 ROOT
