@<TRIPOS>MOLECULE
L1W
   87    93     1     0     0
SMALL
No Charge or Current Charge


@<TRIPOS>ATOM
      1 CAA         -6.5920     0.7460     0.6530 cc         1 L1W       0.355300
      2 CAB         -7.5710    -0.2480     1.2010 c          1 L1W       0.421700
      3 CAD         -5.8820    -1.8480     0.5890 cc         1 L1W       0.085400
      4 CAE         -4.9830    -0.8830     0.0960 cd         1 L1W       0.091400
      5 CAG         -5.6210    -3.2770     0.4270 ca         1 L1W      -0.083800
      6 CAH         -3.5860    -1.1290    -0.3760 ca         1 L1W      -0.028800
      7 CAI         -5.6490    -4.1340     1.5470 ca         1 L1W      -0.083500
      8 CAJ         -5.4110    -5.5110     1.3920 ca         1 L1W      -0.112000
      9 CAK         -5.1530    -6.0430     0.1170 ca         1 L1W      -0.093000
     10 CAL         -5.1380    -5.1970    -1.0040 ca         1 L1W      -0.112000
     11 CAM         -5.3760    -3.8200    -0.8510 ca         1 L1W      -0.083500
     12 CAN         -2.9510    -0.1780    -1.2140 ca         1 L1W      -0.090500
     13 CAO         -1.6260    -0.3560    -1.6480 ca         1 L1W      -0.103500
     14 CAP         -0.8850    -1.4740    -1.2340 ca         1 L1W      -0.082300
     15 CAQ         -1.4820    -2.4030    -0.3650 ca         1 L1W      -0.103500
     16 CAR         -2.8080    -2.2260     0.0680 ca         1 L1W      -0.090500
     17 CAS          0.5560    -1.6610    -1.7030 c3         1 L1W       0.218100
     18 CAU          1.5710    -0.6360     0.3130 c6         1 L1W       0.170800
     19 CAV          2.4590     0.5210     0.8220 c6         1 L1W      -0.091900
     20 CAW          3.8780     0.4190     0.2110 c6         1 L1W       0.136700
     21 CAX          3.7680     0.4070    -1.3300 c6         1 L1W      -0.091900
     22 CAY          2.8350    -0.7320    -1.8010 c6         1 L1W       0.170800
     23 CBA          4.5690     2.7210     1.2120 c          1 L1W       0.593000
     24 CBC          6.8240     2.2600     1.4250 ca         1 L1W      -0.022400
     25 CBD          6.2450     1.1570     0.8290 ca         1 L1W       0.034600
     26 CBE          8.1970     2.3590     1.6470 ca         1 L1W      -0.082000
     27 CBF          8.9990     1.2830     1.2060 ca         1 L1W      -0.171000
     28 CBG          8.4320     0.1650     0.5380 ca         1 L1W      -0.017000
     29 CBH          7.0290     0.1120     0.3210 ca         1 L1W      -0.137000
     30 CBJ          9.1250    -2.0600    -0.5530 c          1 L1W       0.605100
     31 CBK         10.4150    -2.8400    -0.8470 c3         1 L1W      -0.158400
     32 CBL         10.5600    -4.0750     0.0700 c3         1 L1W      -0.077100
     33 CBP         -7.0720     2.1860     0.7220 c3         1 L1W      -0.046400
     34 CBQ         -6.1620     3.2120     0.0450 ca         1 L1W      -0.104300
     35 CBR         -5.1660     3.8790     0.7870 ca         1 L1W      -0.057000
     36 CBS         -4.3280     4.8180     0.1600 ca         1 L1W      -0.176000
     37 CBT         -4.4780     5.0940    -1.2070 ca         1 L1W       0.142100
     38 CBU         -5.4670     4.4330    -1.9520 ca         1 L1W      -0.176000
     39 CBV         -6.3070     3.4940    -1.3280 ca         1 L1W      -0.057000
     40 NAC         -7.1090    -1.5230     1.1180 ns         1 L1W      -0.357100
     41 NAF         -5.3760     0.4720     0.1460 nd         1 L1W      -0.512300
     42 NAT          1.4890    -0.6360    -1.1750 n3         1 L1W      -0.721600
     43 NAZ          4.8520     1.4460     0.6670 n          1 L1W      -0.292000
     44 NBB          5.7840     3.1630     1.6530 ns         1 L1W      -0.502600
     45 OBM          8.0300    -2.4850    -0.9020 o          1 L1W      -0.583100
     46 OBN          3.5100     3.3200     1.2890 o          1 L1W      -0.562000
     47 OBO         -8.6750    -0.0050     1.6760 o          1 L1W      -0.546000
     48 OBW         -3.6610     6.0060    -1.8040 oh         1 L1W      -0.533100
     49 H2          -5.8430    -3.7320     2.5390 ha         1 L1W       0.124000
     50 H3          -5.4260    -6.1660     2.2610 ha         1 L1W       0.119500
     51 H4          -4.9680    -7.1090    -0.0020 ha         1 L1W       0.118000
     52 H5          -4.9430    -5.6080    -1.9920 ha         1 L1W       0.119500
     53 H6          -5.3670    -3.1730    -1.7260 ha         1 L1W       0.124000
     54 H7          -3.4910     0.7000    -1.5600 ha         1 L1W       0.123000
     55 H8          -1.1700     0.3830    -2.3030 ha         1 L1W       0.119500
     56 H9          -0.9140    -3.2590    -0.0080 ha         1 L1W       0.119500
     57 H10         -3.2000    -2.9390     0.7840 ha         1 L1W       0.123000
     58 H11          0.9030    -2.6640    -1.4170 h1         1 L1W       0.036200
     59 H12          0.5560    -1.6280    -2.8010 h1         1 L1W       0.036200
     60 H13          1.9790    -1.5930     0.6730 h1         1 L1W       0.034200
     61 H14          0.5720    -0.5230     0.7570 h1         1 L1W       0.034200
     62 H15          1.9800     1.4670     0.5430 hc         1 L1W       0.065700
     63 H16          2.5140     0.4930     1.9180 hc         1 L1W       0.065700
     64 H17          4.2810    -0.5570     0.5180 h1         1 L1W       0.057700
     65 H18          3.3810     1.3720    -1.6860 hc         1 L1W       0.065700
     66 H19          4.7600     0.2790    -1.7820 hc         1 L1W       0.065700
     67 H20          2.7500    -0.6850    -2.8970 h1         1 L1W       0.034200
     68 H21          3.2990    -1.7000    -1.5550 h1         1 L1W       0.034200
     69 H22          8.6340     3.2340     2.1220 ha         1 L1W       0.122000
     70 H23         10.0740     1.3290     1.3640 ha         1 L1W       0.111000
     71 H24          6.5550    -0.7040    -0.2120 ha         1 L1W       0.158000
     72 H25         10.3880    -3.1870    -1.8870 hc         1 L1W       0.056700
     73 H26         11.2900    -2.1960    -0.6950 hc         1 L1W       0.056700
     74 H27         10.5910    -3.7750     1.1250 hc         1 L1W       0.044700
     75 H28          9.7180    -4.7650    -0.0680 hc         1 L1W       0.044700
     76 H29         11.4860    -4.6170    -0.1590 hc         1 L1W       0.044700
     77 H30         -8.0720     2.2470     0.2740 hc         1 L1W       0.069700
     78 H31         -7.2090     2.4580     1.7750 hc         1 L1W       0.069700
     79 H32         -5.0390     3.6680     1.8460 ha         1 L1W       0.110000
     80 H33         -3.5610     5.3290     0.7360 ha         1 L1W       0.118500
     81 H34         -5.5900     4.6400    -3.0120 ha         1 L1W       0.118500
     82 H35         -7.0690     2.9820    -1.9130 ha         1 L1W       0.110000
     83 H37          5.9000     4.0730     2.0860 hn         1 L1W       0.467000
     84 H38         10.2970    -0.6520     0.3070 hn         1 L1W       0.148000
     85 H39         -3.9090     6.0700    -2.7510 ho         1 L1W       0.463000
     86 H1          -7.7310    -2.2550     1.4390 hn         1 L1W       0.331500
     87 NBI          9.3270    -0.8500     0.1000 ns         1 L1W      -0.148000
@<TRIPOS>BOND
     1     1     2 1   
     2     1    33 1   
     3     1    41 2   
     4     2    40 1   
     5     2    47 2   
     6     3     4 2   
     7     3     5 1   
     8     3    40 1   
     9     4     6 1   
    10     4    41 1   
    11     5     7 ar  
    12     5    11 ar  
    13     6    12 ar  
    14     6    16 ar  
    15     7     8 ar  
    16     7    49 1   
    17     8     9 ar  
    18     8    50 1   
    19     9    10 ar  
    20     9    51 1   
    21    10    11 ar  
    22    10    52 1   
    23    11    53 1   
    24    12    13 ar  
    25    12    54 1   
    26    13    14 ar  
    27    13    55 1   
    28    14    15 ar  
    29    14    17 1   
    30    15    16 ar  
    31    15    56 1   
    32    16    57 1   
    33    17    42 1   
    34    17    58 1   
    35    17    59 1   
    36    18    19 1   
    37    18    42 1   
    38    18    60 1   
    39    18    61 1   
    40    19    20 1   
    41    19    62 1   
    42    19    63 1   
    43    20    21 1   
    44    20    43 1   
    45    20    64 1   
    46    21    22 1   
    47    21    65 1   
    48    21    66 1   
    49    22    42 1   
    50    22    67 1   
    51    22    68 1   
    52    23    43 1   
    53    23    44 1   
    54    23    46 2   
    55    24    25 ar  
    56    24    26 ar  
    57    24    44 1   
    58    25    29 ar  
    59    25    43 1   
    60    26    27 ar  
    61    26    69 1   
    62    27    28 ar  
    63    27    70 1   
    64    28    29 ar  
    65    28    87 1   
    66    29    71 1   
    67    30    31 1   
    68    30    45 2   
    69    30    87 1   
    70    31    32 1   
    71    31    72 1   
    72    31    73 1   
    73    32    74 1   
    74    32    75 1   
    75    32    76 1   
    76    33    34 1   
    77    33    77 1   
    78    33    78 1   
    79    34    35 ar  
    80    34    39 ar  
    81    35    36 ar  
    82    35    79 1   
    83    36    37 ar  
    84    36    80 1   
    85    37    38 ar  
    86    37    48 1   
    87    38    39 ar  
    88    38    81 1   
    89    39    82 1   
    90    40    86 1   
    91    44    83 1   
    92    48    85 1   
    93    84    87 1   
@<TRIPOS>SUBSTRUCTURE
     1 L1W         1 TEMP              0 ****  ****    0 ROOT
