@<TRIPOS>MOLECULE
L1X
   63    68     1     0     0
SMALL
abcg2


@<TRIPOS>ATOM
      1 C1           6.8590     3.7260    45.5590 ca         1 L1X      -0.065000
      2 C2           5.6750     1.9680    44.3980 ca         1 L1X      -0.065000
      3 C3          12.1890    -1.0460    44.9560 ca         1 L1X      -0.169000
      4 C4          13.4280    -1.5630    44.6270 ca         1 L1X      -0.078000
      5 C5           6.5460     4.6180    44.5410 ca         1 L1X      -0.141000
      6 C6           5.3550     2.8510    43.3740 ca         1 L1X      -0.141000
      7 C7          14.5620    -4.6600    43.8990 ca         1 L1X      -0.087000
      8 C8          17.0380    -4.5950    42.5080 ca         1 L1X      -0.122000
      9 C9          12.2800    -2.1470    47.1040 ca         1 L1X      -0.176000
     10 C10         14.0980    -6.6210    42.2250 cc         1 L1X       0.357800
     11 C11         18.7260    -2.1290    42.9800 cc         1 L1X      -0.156000
     12 C12         18.1090    -2.0540    45.0990 cd         1 L1X       0.285900
     13 C13         14.8060    -5.5610    42.8530 ca         1 L1X      -0.210900
     14 C14         16.7940    -3.6880    43.5330 ca         1 L1X       0.050000
     15 C15         17.8030    -2.6760    43.8620 cd         1 L1X      -0.159000
     16 C16         16.0450    -5.5180    42.1750 ca         1 L1X      -0.046200
     17 C17          6.4190     2.4120    45.4820 ca         1 L1X      -0.003400
     18 C18         11.6010    -1.3270    46.1990 ca         1 L1X       0.014000
     19 C19         14.1120    -2.3790    45.5230 ca         1 L1X       0.025100
     20 C20         15.5450    -3.7510    44.2190 ca         1 L1X       0.087100
     21 C21          5.8000     4.1570    43.4710 ca         1 L1X       0.180000
     22 C22         13.5140    -2.6540    46.7430 ca         1 L1X       0.188000
     23 C23          7.4230    -0.2130    48.5630 cc         1 L1X      -0.004000
     24 C24          6.2250     0.5010    48.6280 cc         1 L1X      -0.315000
     25 C25          8.2890    -0.0920    47.5010 cd         1 L1X      -0.315400
     26 C26          5.8900     1.3630    47.6140 cd         1 L1X       0.111400
     27 C27          7.9550     0.7960    46.4160 c          1 L1X       0.572200
     28 C28          9.5500    -0.8930    47.5390 c          1 L1X       0.633300
     29 C29          4.6310     2.1630    47.6290 c3         1 L1X      -0.072900
     30 N31         14.8260    -7.1680    41.2660 nd         1 L1X      -0.516100
     31 N32         19.4840    -1.2720    43.6880 na         1 L1X      -0.017200
     32 N33         19.1290    -1.2090    44.9870 nc         1 L1X      -0.527800
     33 N34         16.0110    -6.5090    41.2390 na         1 L1X       0.059600
     34 N35          6.7410     1.4960    46.5500 n          1 L1X      -0.187200
     35 N36         10.3580    -0.7460    46.4560 ns         1 L1X      -0.149000
     36 O38          9.8110    -1.6230    48.4970 o          1 L1X      -0.605100
     37 O39         15.3760    -2.8520    45.2610 os         1 L1X      -0.241200
     38 F40          5.4920     5.0240    42.4770 f          1 L1X      -0.175000
     39 F41         14.1630    -3.4540    47.6190 f          1 L1X      -0.167000
     40 H1           7.4410     4.0490    46.4120 ha         1 L1X       0.132000
     41 H2           5.3450     0.9380    44.3560 ha         1 L1X       0.132000
     42 H3          11.6660    -0.4100    44.2530 ha         1 L1X       0.126000
     43 H4          13.8810    -1.3400    43.6700 ha         1 L1X       0.131000
     44 H5           6.8730     5.6480    44.5740 ha         1 L1X       0.142000
     45 H6           4.7750     2.5350    42.5180 ha         1 L1X       0.142000
     46 H7          13.6270    -4.6710    44.4420 ha         1 L1X       0.134000
     47 H8          17.9850    -4.5830    41.9860 ha         1 L1X       0.118000
     48 H9          11.8590    -2.3870    48.0660 ha         1 L1X       0.168000
     49 H10         13.1100    -6.9960    42.4400 h4         1 L1X       0.050800
     50 H11         18.8760    -2.2770    41.9240 h4         1 L1X       0.151000
     51 H12         17.6320    -2.2000    46.0530 h4         1 L1X       0.055100
     52 H13          7.6940    -0.8860    49.3650 ha         1 L1X       0.219000
     53 H14          5.5570     0.3910    49.4690 ha         1 L1X       0.208000
     54 H15          4.0710     1.9400    48.5340 hc         1 L1X       0.066700
     55 H16          4.8460     3.2320    47.6000 hc         1 L1X       0.066700
     56 H17          4.0100     1.9340    46.7610 hc         1 L1X       0.066700
     57 H18         16.8020    -7.8080    39.8450 h1         1 L1X       0.052367
     58 H19         17.0150    -6.0880    39.4400 h1         1 L1X       0.052367
     59 H20         18.0030    -6.8330    40.7170 h1         1 L1X       0.052367
     60 H21         20.2350    -0.6940    43.3440 hn         1 L1X       0.371000
     61 H22          9.9880    -0.1060    45.7500 hn         1 L1X       0.198000
     62 O37          8.6370     0.9920    45.3970 o          1 L1X      -0.574000
     63 C30         17.0180    -6.8220    40.2490 c3         1 L1X       0.084900
@<TRIPOS>BOND
     1     1     5 ar  
     2     1    17 ar  
     3     1    40 1   
     4     2     6 ar  
     5     2    17 ar  
     6     2    41 1   
     7     3     4 ar  
     8     3    18 ar  
     9     3    42 1   
    10     4    19 ar  
    11     4    43 1   
    12     5    21 ar  
    13     5    44 1   
    14     6    21 ar  
    15     6    45 1   
    16     7    13 ar  
    17     7    20 ar  
    18     7    46 1   
    19     8    14 ar  
    20     8    16 ar  
    21     8    47 1   
    22     9    18 ar  
    23     9    22 ar  
    24     9    48 1   
    25    10    13 1   
    26    10    30 2   
    27    10    49 1   
    28    11    15 2   
    29    11    31 1   
    30    11    50 1   
    31    12    15 1   
    32    12    32 2   
    33    12    51 1   
    34    13    16 ar  
    35    14    15 1   
    36    14    20 ar  
    37    16    33 1   
    38    17    34 1   
    39    18    35 1   
    40    19    22 ar  
    41    19    37 1   
    42    20    37 1   
    43    21    38 1   
    44    22    39 1   
    45    23    24 1   
    46    23    25 2   
    47    23    52 1   
    48    24    26 2   
    49    24    53 1   
    50    25    27 1   
    51    25    28 1   
    52    26    29 1   
    53    26    34 1   
    54    27    34 1   
    55    27    62 2   
    56    28    35 1   
    57    28    36 2   
    58    29    54 1   
    59    29    55 1   
    60    29    56 1   
    61    30    33 1   
    62    31    32 1   
    63    31    60 1   
    64    33    63 1   
    65    35    61 1   
    66    57    63 1   
    67    58    63 1   
    68    59    63 1   
@<TRIPOS>SUBSTRUCTURE
     1 L1X         1 TEMP              0 ****  ****    0 ROOT
