@<TRIPOS>MOLECULE
L1X
   63    68     1     0     0
SMALL
No Charge or Current Charge


@<TRIPOS>ATOM
      1 C1           6.7500     3.5930    45.0560 ca         1 L1X      -0.065000
      2 C2           5.4750     1.6000    44.4670 ca         1 L1X      -0.065000
      3 C3          12.1830    -1.4660    45.1750 ca         1 L1X      -0.169000
      4 C4          13.3770    -2.1250    44.8330 ca         1 L1X      -0.078000
      5 C5           6.2410     4.2520    43.9220 ca         1 L1X      -0.141000
      6 C6           4.9670     2.2610    43.3330 ca         1 L1X      -0.141000
      7 C7          14.5510    -4.8920    43.7300 ca         1 L1X      -0.087000
      8 C8          16.9670    -4.4020    42.3250 ca         1 L1X      -0.122000
      9 C9          12.4350    -2.1750    47.4830 ca         1 L1X      -0.176000
     10 C10         14.0500    -6.3780    41.6590 cc         1 L1X       0.357800
     11 C11         19.0330    -2.6290    43.5110 cc         1 L1X      -0.156000
     12 C12         17.8320    -2.1160    45.3160 cd         1 L1X       0.285900
     13 C13         14.8120    -5.4740    42.4870 ca         1 L1X      -0.210900
     14 C14         16.7610    -3.7760    43.5850 ca         1 L1X       0.050000
     15 C15         17.8280    -2.8840    44.1190 cd         1 L1X      -0.159000
     16 C16         15.9650    -5.2390    41.8170 ca         1 L1X      -0.046200
     17 C17          6.3590     2.2680    45.3360 ca         1 L1X      -0.003400
     18 C18         11.6970    -1.4850    46.4960 ca         1 L1X       0.014000
     19 C19         14.1010    -2.8250    45.8180 ca         1 L1X       0.025100
     20 C20         15.5310    -4.0290    44.2780 ca         1 L1X       0.087100
     21 C21          5.3510     3.5840    43.0660 ca         1 L1X       0.180000
     22 C22         13.6280    -2.8350    47.1440 ca         1 L1X       0.188000
     23 C23          7.6820     0.3780    48.8670 cc         1 L1X      -0.004000
     24 C24          6.4890     1.1630    48.7960 cc         1 L1X      -0.315000
     25 C25          8.4760     0.2010    47.7460 cd         1 L1X      -0.315400
     26 C26          6.0880     1.7660    47.6250 cd         1 L1X       0.111400
     27 C27          8.0780     0.8370    46.4570 c          1 L1X       0.572200
     28 C28          9.7100    -0.6330    47.8960 c          1 L1X       0.633300
     29 C29          4.8110     2.5880    47.6080 c3         1 L1X      -0.072900
     30 N31         14.7020    -6.6880    40.5260 nd         1 L1X      -0.516100
     31 N32         19.6810    -1.7440    44.3670 na         1 L1X      -0.017200
     32 N33         18.9430    -1.4200    45.4880 nc         1 L1X      -0.527800
     33 N34         15.8890    -5.9670    40.6480 na         1 L1X       0.059600
     34 N35          6.8870     1.5910    46.4870 n          1 L1X      -0.187200
     35 N36         10.4830    -0.7920    46.7550 ns         1 L1X      -0.149000
     36 O38         10.0070    -1.1430    48.9700 o          1 L1X      -0.605100
     37 O39         15.2830    -3.4690    45.5100 os         1 L1X      -0.241200
     38 F40          4.8640     4.2180    41.9770 f          1 L1X      -0.175000
     39 F41         14.3190    -3.4860    48.1070 f          1 L1X      -0.167000
     40 H1           7.4430     4.1070    45.7180 ha         1 L1X       0.132000
     41 H2           5.1810     0.5730    44.6740 ha         1 L1X       0.132000
     42 H3          11.6320    -0.9320    44.4020 ha         1 L1X       0.126000
     43 H4          13.7360    -2.0850    43.8070 ha         1 L1X       0.131000
     44 H5           6.5370     5.2750    43.7040 ha         1 L1X       0.142000
     45 H6           4.2810     1.7500    42.6630 ha         1 L1X       0.142000
     46 H7          13.6240    -5.1000    44.2600 ha         1 L1X       0.134000
     47 H8          17.8760    -4.2450    41.7540 ha         1 L1X       0.118000
     48 H9          12.1110    -2.2130    48.5170 ha         1 L1X       0.168000
     49 H10         13.0750    -6.8230    41.8100 h4         1 L1X       0.050800
     50 H11         19.4780    -2.9790    42.5870 h4         1 L1X       0.151000
     51 H12         17.0670    -2.0290    46.0750 h4         1 L1X       0.055100
     52 H13          7.9410    -0.0710    49.8270 ha         1 L1X       0.219000
     53 H14          5.8990     1.2730    49.7030 ha         1 L1X       0.208000
     54 H15          4.3280     2.6070    48.5910 hc         1 L1X       0.066700
     55 H16          5.0100     3.6300    47.3300 hc         1 L1X       0.066700
     56 H17          4.0810     2.1780    46.9010 hc         1 L1X       0.066700
     57 H18         16.6490    -6.6380    38.7920 h1         1 L1X       0.052367
     58 H19         17.1160    -4.9740    39.2520 h1         1 L1X       0.052367
     59 H20         17.8740    -6.3750    40.0680 h1         1 L1X       0.052367
     60 H21         20.6100    -1.3480    44.2180 hn         1 L1X       0.371000
     61 H22         10.1070    -0.3180    45.9430 hn         1 L1X       0.198000
     62 O37          8.7160     0.7350    45.4180 o          1 L1X      -0.574000
     63 C30         16.9470    -5.9910    39.6260 c3         1 L1X       0.084900
@<TRIPOS>BOND
     1     1     5 ar  
     2     1    17 ar  
     3     1    40 1   
     4     2     6 ar  
     5     2    17 ar  
     6     2    41 1   
     7     3     4 ar  
     8     3    18 ar  
     9     3    42 1   
    10     4    19 ar  
    11     4    43 1   
    12     5    21 ar  
    13     5    44 1   
    14     6    21 ar  
    15     6    45 1   
    16     7    13 ar  
    17     7    20 ar  
    18     7    46 1   
    19     8    14 ar  
    20     8    16 ar  
    21     8    47 1   
    22     9    18 ar  
    23     9    22 ar  
    24     9    48 1   
    25    10    13 1   
    26    10    30 2   
    27    10    49 1   
    28    11    15 2   
    29    11    31 1   
    30    11    50 1   
    31    12    15 1   
    32    12    32 2   
    33    12    51 1   
    34    13    16 ar  
    35    14    15 1   
    36    14    20 ar  
    37    16    33 1   
    38    17    34 1   
    39    18    35 1   
    40    19    22 ar  
    41    19    37 1   
    42    20    37 1   
    43    21    38 1   
    44    22    39 1   
    45    23    24 1   
    46    23    25 2   
    47    23    52 1   
    48    24    26 2   
    49    24    53 1   
    50    25    27 1   
    51    25    28 1   
    52    26    29 1   
    53    26    34 1   
    54    27    34 1   
    55    27    62 2   
    56    28    35 1   
    57    28    36 2   
    58    29    54 1   
    59    29    55 1   
    60    29    56 1   
    61    30    33 1   
    62    31    32 1   
    63    31    60 1   
    64    33    63 1   
    65    35    61 1   
    66    57    63 1   
    67    58    63 1   
    68    59    63 1   
@<TRIPOS>SUBSTRUCTURE
     1 L1X         1 TEMP              0 ****  ****    0 ROOT
