@<TRIPOS>MOLECULE
L1Y
   34    35     1     0     0
SMALL
No Charge or Current Charge


@<TRIPOS>ATOM
      1 C10         -1.3010     0.9320     0.5920 c5         1 L1Y      -0.168700
      2 C12         -1.6350     2.2740     1.3350 c5         1 L1Y      -0.065400
      3 C14         -3.5830     0.8190     1.2610 c5         1 L1Y      -0.070400
      4 O17         -4.2930    -1.3430    -2.0540 o          1 L1Y      -0.750500
      5 C01          2.9630     0.1250     1.1040 ca         1 L1Y      -0.111000
      6 C02          3.6500    -0.5030     0.0390 ca         1 L1Y      -0.118600
      7 C03          3.0150    -0.5570    -1.2240 ca         1 L1Y      -0.111000
      8 C04          1.7360    -0.0060    -1.4120 ca         1 L1Y      -0.097500
      9 C05          1.0490     0.6040    -0.3440 ca         1 L1Y      -0.195600
     10 C06          1.6840     0.6750     0.9160 ca         1 L1Y      -0.097500
     11 C07         -0.3210     1.2000    -0.5900 c          1 L1Y       0.593700
     12 C08         -2.6930    -1.0800    -0.3190 c3         1 L1Y      -0.197400
     13 C09         -4.0710    -1.5030    -0.8630 c          1 L1Y       0.717000
     14 C11         -2.6800     0.4260     0.0640 c5         1 L1Y      -0.028700
     15 C13         -3.1890     2.3070     1.4250 c5         1 L1Y      -0.083400
     16 O15         -4.8940    -1.9530    -0.0800 o          1 L1Y      -0.750500
     17 O16         -0.5840     1.8270    -1.6120 o          1 L1Y      -0.544100
     18 O19          5.5950    -1.6290    -0.7060 o          1 L1Y      -0.728000
     19 O20          5.5480    -1.0280     1.3540 o          1 L1Y      -0.728000
     20 H1          -0.8670     0.2160     1.2980 hc         1 L1Y       0.059700
     21 H2          -1.1800     2.2850     2.3320 hc         1 L1Y       0.031200
     22 H3          -1.2540     3.1580     0.8090 hc         1 L1Y       0.031200
     23 H4          -4.6510     0.7000     1.0440 hc         1 L1Y       0.044200
     24 H5          -3.3590     0.2340     2.1610 hc         1 L1Y       0.044200
     25 H6           3.4240     0.1950     2.0870 ha         1 L1Y       0.122000
     26 H7           3.5150    -1.0270    -2.0680 ha         1 L1Y       0.122000
     27 H8           1.2740    -0.0610    -2.3960 ha         1 L1Y       0.101000
     28 H9           1.1980     1.1690     1.7540 ha         1 L1Y       0.101000
     29 H10         -2.4550    -1.6440     0.5920 hc         1 L1Y       0.022200
     30 H11         -1.9380    -1.1930    -1.1060 hc         1 L1Y       0.022200
     31 H12         -2.9890     0.9800    -0.8330 hc         1 L1Y       0.078700
     32 H13         -3.5420     2.7300     2.3720 hc         1 L1Y       0.022200
     33 H14         -3.6170     2.9190     0.6210 hc         1 L1Y       0.022200
     34 C18          5.0370    -1.0990     0.2450 c          1 L1Y       0.713600
@<TRIPOS>BOND
     1     1     2 1   
     2     1    11 1   
     3     1    14 1   
     4     1    20 1   
     5     2    15 1   
     6     2    21 1   
     7     2    22 1   
     8     3    14 1   
     9     3    15 1   
    10     3    23 1   
    11     3    24 1   
    12     4    13 1   
    13     5     6 ar  
    14     5    10 ar  
    15     5    25 1   
    16     6     7 ar  
    17     6    34 1   
    18     7     8 ar  
    19     7    26 1   
    20     8     9 ar  
    21     8    27 1   
    22     9    10 ar  
    23     9    11 1   
    24    10    28 1   
    25    11    17 2   
    26    12    13 1   
    27    12    14 1   
    28    12    29 1   
    29    12    30 1   
    30    13    16 1   
    31    14    31 1   
    32    15    32 1   
    33    15    33 1   
    34    18    34 1   
    35    19    34 1   
@<TRIPOS>SUBSTRUCTURE
     1 L1Y         1 TEMP              0 ****  ****    0 ROOT
