@<TRIPOS>MOLECULE
L1Y
   34    35     1     0     0
SMALL
bcc


@<TRIPOS>ATOM
      1 C10         -1.3660     0.5250     0.4000 c5         1 L1Y      -0.168700
      2 C12         -1.2340     1.9360     1.0480 c5         1 L1Y      -0.065400
      3 C14         -3.5500     1.2180     1.0690 c5         1 L1Y      -0.070400
      4 O17         -5.2630    -0.4600    -1.2480 o          1 L1Y      -0.855800
      5 C01          2.8610    -0.1050     1.1880 ca         1 L1Y      -0.129000
      6 C02          3.7950    -0.1680     0.1580 ca         1 L1Y      -0.118600
      7 C03          3.3410    -0.0570    -1.1550 ca         1 L1Y      -0.129000
      8 C04          1.9960     0.1110    -1.4320 ca         1 L1Y      -0.115500
      9 C05          1.0580     0.1740    -0.3980 ca         1 L1Y      -0.195600
     10 C06          1.5120     0.0640     0.9160 ca         1 L1Y      -0.115500
     11 C07         -0.3850     0.3530    -0.7330 c          1 L1Y       0.593700
     12 C08         -3.2950    -1.0770    -0.0540 c3         1 L1Y      -0.197400
     13 C09         -4.7640    -1.2870    -0.4570 c          1 L1Y       0.927600
     14 C11         -2.8420     0.3720     0.0120 c5         1 L1Y      -0.028700
     15 C13         -2.6740     2.4620     1.1710 c5         1 L1Y      -0.083400
     16 O15         -5.3350    -2.2930     0.0130 o          1 L1Y      -0.855800
     17 O16         -0.7360     0.3880    -1.8960 o          1 L1Y      -0.544100
     18 O19          6.0430    -0.4040    -0.5220 o          1 L1Y      -0.833300
     19 O20          5.5940    -0.4400     1.6610 o          1 L1Y      -0.833300
     20 H1          -1.1420    -0.2260     1.1650 hc         1 L1Y       0.059700
     21 H2          -0.7560     1.8560     2.0250 hc         1 L1Y       0.031200
     22 H3          -0.6120     2.6100     0.4560 hc         1 L1Y       0.031200
     23 H4          -4.5840     1.4390     0.8030 hc         1 L1Y       0.044200
     24 H5          -3.5630     0.6810     2.0250 hc         1 L1Y       0.044200
     25 H6           3.1920    -0.1930     2.2140 ha         1 L1Y       0.140000
     26 H7           4.0530    -0.1020    -1.9680 ha         1 L1Y       0.140000
     27 H8           1.6680     0.1980    -2.4590 ha         1 L1Y       0.119000
     28 H9           0.8180     0.1040     1.7450 ha         1 L1Y       0.119000
     29 H10         -3.1010    -1.5640     0.9080 hc         1 L1Y       0.022200
     30 H11         -2.6770    -1.6140    -0.7850 hc         1 L1Y       0.022200
     31 H12         -3.0120     0.8380    -0.9620 hc         1 L1Y       0.078700
     32 H13         -2.8290     3.0260     2.0910 hc         1 L1Y       0.022200
     33 H14         -2.8980     3.1360     0.3410 hc         1 L1Y       0.022200
     34 C18          5.2790    -0.3540     0.4600 c          1 L1Y       0.924200
@<TRIPOS>BOND
     1     1     2 1   
     2     1    11 1   
     3     1    14 1   
     4     1    20 1   
     5     2    15 1   
     6     2    21 1   
     7     2    22 1   
     8     3    14 1   
     9     3    15 1   
    10     3    23 1   
    11     3    24 1   
    12     4    13 1   
    13     5     6 ar  
    14     5    10 ar  
    15     5    25 1   
    16     6     7 ar  
    17     6    34 1   
    18     7     8 ar  
    19     7    26 1   
    20     8     9 ar  
    21     8    27 1   
    22     9    10 ar  
    23     9    11 1   
    24    10    28 1   
    25    11    17 2   
    26    12    13 1   
    27    12    14 1   
    28    12    29 1   
    29    12    30 1   
    30    13    16 1   
    31    14    31 1   
    32    15    32 1   
    33    15    33 1   
    34    18    34 1   
    35    19    34 1   
@<TRIPOS>SUBSTRUCTURE
     1 L1Y         1 TEMP              0 ****  ****    0 ROOT
