@<TRIPOS>MOLECULE
L1Z
   76    81     1     0     0
SMALL
No Charge or Current Charge


@<TRIPOS>ATOM
      1 CAA          5.4730    -2.1950    -2.8340 c          1 L1Z       0.420700
      2 CAB          6.8360    -2.0780    -2.2230 cc         1 L1Z       0.356300
      3 CAD          6.2340    -0.3320    -0.7670 cd         1 L1Z       0.081400
      4 CAE          4.9360    -0.4150    -1.3090 cc         1 L1Z       0.094400
      5 CAG          6.7200     0.6880     0.2130 ca         1 L1Z      -0.026800
      6 CAH          3.8280     0.3490    -0.7380 ca         1 L1Z      -0.087800
      7 CAI          7.8760     0.4200     0.9890 ca         1 L1Z      -0.087000
      8 CAJ          8.3850     1.3680     1.8930 ca         1 L1Z      -0.116000
      9 CAK          7.7670     2.6200     2.0220 ca         1 L1Z      -0.104000
     10 CAL          6.6500     2.9250     1.2320 ca         1 L1Z      -0.116000
     11 CAM          6.1400     1.9760     0.3290 ca         1 L1Z      -0.087000
     12 CAN          3.0350     1.1730    -1.5610 ca         1 L1Z      -0.086000
     13 CAO          1.9610     1.8990    -1.0160 ca         1 L1Z      -0.101500
     14 CAP          1.6610     1.8040     0.3560 ca         1 L1Z      -0.067300
     15 CAQ          2.4440     0.9700     1.1760 ca         1 L1Z      -0.101500
     16 CAR          3.5160     0.2420     0.6330 ca         1 L1Z      -0.086000
     17 CAS          0.4960     2.5900     0.9530 c3         1 L1Z       0.211100
     18 CAU         -1.6260     2.5110     2.2040 c6         1 L1Z       0.167800
     19 CAV         -2.6850     1.5810     2.8350 c6         1 L1Z      -0.092400
     20 CAW         -3.3680     0.7250     1.7390 c6         1 L1Z       0.135700
     21 CAX         -2.2890    -0.0650     0.9650 c6         1 L1Z      -0.092400
     22 CAY         -1.2180     0.8910     0.3900 c6         1 L1Z       0.167800
     23 CBA         -4.6500    -0.6820     3.5150 c          1 L1Z       0.592000
     24 CBC         -6.4830    -1.1780     2.1980 ca         1 L1Z      -0.023400
     25 CBD         -5.6060    -0.4630     1.4080 ca         1 L1Z       0.033600
     26 CBE         -7.6780    -1.7050     1.7060 ca         1 L1Z      -0.080000
     27 CBF         -7.9530    -1.5030     0.3360 ca         1 L1Z      -0.170000
     28 CBG         -7.0370    -0.8220    -0.5090 ca         1 L1Z      -0.016000
     29 CBH         -5.8260    -0.3140     0.0320 ca         1 L1Z      -0.137000
     30 CBJ         -6.7570    -0.0950    -2.9610 c          1 L1Z       0.606100
     31 CBK         -7.5110    -0.2340    -4.2920 c3         1 L1Z      -0.159400
     32 CBL         -8.1620     1.0980    -4.7250 c3         1 L1Z      -0.077100
     33 CBO          7.8580    -3.0420    -2.7740 c3         1 L1Z      -0.117400
     34 NAC          7.2180    -1.2140    -1.2670 nd         1 L1Z      -0.521300
     35 NAF          4.5950    -1.3070    -2.2970 ns         1 L1Z      -0.356100
     36 NAT         -0.6020     1.7300     1.4570 n3         1 L1Z      -0.719600
     37 NAZ         -4.4530    -0.1770     2.2090 n          1 L1Z      -0.292000
     38 NBB         -5.8810    -1.2710     3.4540 ns         1 L1Z      -0.501600
     39 OBM         -5.6800     0.4860    -2.8980 o          1 L1Z      -0.583100
     40 OBN         -3.9220    -0.6300     4.4920 o          1 L1Z      -0.565000
     41 OBP          5.1270    -2.9800    -3.7110 o          1 L1Z      -0.545000
     42 H1           8.3770    -0.5430     0.9170 ha         1 L1Z       0.119500
     43 H2           9.2610     1.1310     2.4920 ha         1 L1Z       0.112500
     44 H3           8.1620     3.3560     2.7190 ha         1 L1Z       0.112000
     45 H4           6.1840     3.9050     1.3080 ha         1 L1Z       0.112500
     46 H5           5.3120     2.2780    -0.3020 ha         1 L1Z       0.119500
     47 H6           3.2570     1.2590    -2.6230 ha         1 L1Z       0.123500
     48 H7           1.3620     2.5350    -1.6640 ha         1 L1Z       0.128500
     49 H8           2.2130     0.8810     2.2350 ha         1 L1Z       0.128500
     50 H9           4.1080    -0.4030     1.2780 ha         1 L1Z       0.123500
     51 H10          0.8940     3.2010     1.7750 h1         1 L1Z       0.042200
     52 H11          0.1080     3.2900     0.2000 h1         1 L1Z       0.042200
     53 H12         -2.1250     3.2270     1.5340 h1         1 L1Z       0.035450
     54 H13         -1.1490     3.0940     3.0060 h1         1 L1Z       0.035450
     55 H14         -2.1840     0.9420     3.5730 hc         1 L1Z       0.066950
     56 H15         -3.4320     2.1780     3.3730 hc         1 L1Z       0.066950
     57 H16         -3.8280     1.4310     1.0330 h1         1 L1Z       0.058700
     58 H17         -1.8120    -0.7970     1.6300 hc         1 L1Z       0.066950
     59 H18         -2.7480    -0.6340     0.1470 hc         1 L1Z       0.066950
     60 H19         -0.4530     0.2850    -0.1170 h1         1 L1Z       0.035450
     61 H20         -1.6820     1.5310    -0.3750 h1         1 L1Z       0.035450
     62 H21         -8.3590    -2.2620     2.3460 ha         1 L1Z       0.123000
     63 H22         -8.8770    -1.9020    -0.0790 ha         1 L1Z       0.112000
     64 H23         -5.0820     0.1840    -0.5790 ha         1 L1Z       0.157000
     65 H24         -6.8000    -0.5370    -5.0700 hc         1 L1Z       0.057700
     66 H25         -8.3020    -0.9890    -4.2010 hc         1 L1Z       0.057700
     67 H26         -7.4030     1.8790    -4.8560 hc         1 L1Z       0.044700
     68 H27         -8.6920     0.9740    -5.6770 hc         1 L1Z       0.044700
     69 H28         -8.8840     1.4410    -3.9730 hc         1 L1Z       0.044700
     70 H29          8.8340    -2.9140    -2.2910 hc         1 L1Z       0.058700
     71 H30          7.5400    -4.0790    -2.6150 hc         1 L1Z       0.058700
     72 H31          7.9950    -2.8880    -3.8510 hc         1 L1Z       0.058700
     73 H32          3.6420    -1.3470    -2.6370 hn         1 L1Z       0.331500
     74 H34         -6.2920    -1.7410     4.2540 hn         1 L1Z       0.467000
     75 H35         -8.2680    -1.1420    -2.1160 hn         1 L1Z       0.149000
     76 NBI         -7.3880    -0.7030    -1.8820 ns         1 L1Z      -0.149000
@<TRIPOS>BOND
     1     1     2 1   
     2     1    35 1   
     3     1    41 2   
     4     2    33 1   
     5     2    34 2   
     6     3     4 2   
     7     3     5 1   
     8     3    34 1   
     9     4     6 1   
    10     4    35 1   
    11     5     7 ar  
    12     5    11 ar  
    13     6    12 ar  
    14     6    16 ar  
    15     7     8 ar  
    16     7    42 1   
    17     8     9 ar  
    18     8    43 1   
    19     9    10 ar  
    20     9    44 1   
    21    10    11 ar  
    22    10    45 1   
    23    11    46 1   
    24    12    13 ar  
    25    12    47 1   
    26    13    14 ar  
    27    13    48 1   
    28    14    15 ar  
    29    14    17 1   
    30    15    16 ar  
    31    15    49 1   
    32    16    50 1   
    33    17    36 1   
    34    17    51 1   
    35    17    52 1   
    36    18    19 1   
    37    18    36 1   
    38    18    53 1   
    39    18    54 1   
    40    19    20 1   
    41    19    55 1   
    42    19    56 1   
    43    20    21 1   
    44    20    37 1   
    45    20    57 1   
    46    21    22 1   
    47    21    58 1   
    48    21    59 1   
    49    22    36 1   
    50    22    60 1   
    51    22    61 1   
    52    23    37 1   
    53    23    38 1   
    54    23    40 2   
    55    24    25 ar  
    56    24    26 ar  
    57    24    38 1   
    58    25    29 ar  
    59    25    37 1   
    60    26    27 ar  
    61    26    62 1   
    62    27    28 ar  
    63    27    63 1   
    64    28    29 ar  
    65    28    76 1   
    66    29    64 1   
    67    30    31 1   
    68    30    39 2   
    69    30    76 1   
    70    31    32 1   
    71    31    65 1   
    72    31    66 1   
    73    32    67 1   
    74    32    68 1   
    75    32    69 1   
    76    33    70 1   
    77    33    71 1   
    78    33    72 1   
    79    35    73 1   
    80    38    74 1   
    81    75    76 1   
@<TRIPOS>SUBSTRUCTURE
     1 L1Z         1 TEMP              0 ****  ****    0 ROOT
