@<TRIPOS>MOLECULE
L1Z
   76    81     1     0     0
SMALL
bcc


@<TRIPOS>ATOM
      1 CAA          6.7110    -1.9480    -2.5630 c          1 L1Z       0.563200
      2 CAB          7.7760    -1.8310    -1.5690 cc         1 L1Z       0.356300
      3 CAD          6.5680    -0.2860    -0.3270 cd         1 L1Z       0.081400
      4 CAE          5.4940    -0.3800    -1.1690 cc         1 L1Z       0.094400
      5 CAG          6.6290     0.6150     0.8410 ca         1 L1Z      -0.026800
      6 CAH          4.2000     0.3040    -1.0100 ca         1 L1Z      -0.087800
      7 CAI          7.1860     0.1540     2.0350 ca         1 L1Z      -0.105000
      8 CAJ          7.2730     0.9850     3.1420 ca         1 L1Z      -0.134000
      9 CAK          6.8140     2.2940     3.0710 ca         1 L1Z      -0.122000
     10 CAL          6.2740     2.7660     1.8820 ca         1 L1Z      -0.134000
     11 CAM          6.1850     1.9350     0.7760 ca         1 L1Z      -0.105000
     12 CAN          3.6440     1.0130    -2.0710 ca         1 L1Z      -0.104000
     13 CAO          2.4140     1.6390    -1.9270 ca         1 L1Z      -0.119500
     14 CAP          1.7140     1.5690    -0.7280 ca         1 L1Z      -0.067300
     15 CAQ          2.2680     0.8430     0.3260 ca         1 L1Z      -0.119500
     16 CAR          3.4950     0.2190     0.1900 ca         1 L1Z      -0.104000
     17 CAS          0.4040     2.2930    -0.5600 c3         1 L1Z       0.211100
     18 CAU         -1.6610     2.3680     0.6550 c6         1 L1Z       0.167800
     19 CAV         -2.5980     1.5920     1.5690 c6         1 L1Z      -0.092400
     20 CAW         -3.1120     0.3530     0.8440 c6         1 L1Z       0.135700
     21 CAX         -1.9440    -0.4850     0.3390 c6         1 L1Z      -0.092400
     22 CAY         -1.0420     0.3800    -0.5260 c6         1 L1Z       0.167800
     23 CBA         -3.7960    -1.0440     2.8220 c          1 L1Z       0.801500
     24 CBC         -5.9600    -1.4100     2.2830 ca         1 L1Z      -0.023400
     25 CBD         -5.3920    -0.6230     1.2790 ca         1 L1Z       0.033600
     26 CBE         -7.2820    -1.7950     2.2120 ca         1 L1Z      -0.098000
     27 CBF         -8.0230    -1.3720     1.1170 ca         1 L1Z      -0.188000
     28 CBG         -7.4590    -0.5820     0.1080 ca         1 L1Z       0.076600
     29 CBH         -6.1170    -0.1950     0.1810 ca         1 L1Z      -0.155000
     30 CBJ         -8.0700     0.5720    -2.0210 c          1 L1Z       0.673100
     31 CBK         -9.2380     0.6530    -2.9830 c3         1 L1Z      -0.159400
     32 CBL         -9.1590     1.8410    -3.9270 c3         1 L1Z      -0.077100
     33 CBO          9.0020    -2.6520    -1.7760 c3         1 L1Z      -0.117400
     34 NAC          7.6750    -1.0510    -0.5450 nd         1 L1Z      -0.521300
     35 NAF          5.6100    -1.1990    -2.2520 ns         1 L1Z      -0.423100
     36 NAT         -0.5590     1.5350     0.2090 n3         1 L1Z      -0.719600
     37 NAZ         -4.0710    -0.4110     1.6260 n          1 L1Z      -0.359000
     38 NBB         -4.9650    -1.6460     3.2050 ns         1 L1Z      -0.455100
     39 OBM         -7.0180     1.1560    -2.2140 o          1 L1Z      -0.583100
     40 OBN         -2.7320    -1.0650     3.4180 o          1 L1Z      -0.640500
     41 OBP          6.7640    -2.6520    -3.5630 o          1 L1Z      -0.620500
     42 H1           7.5460    -0.8650     2.0980 ha         1 L1Z       0.137500
     43 H2           7.6990     0.6080     4.0630 ha         1 L1Z       0.130500
     44 H3           6.8810     2.9430     3.9340 ha         1 L1Z       0.130000
     45 H4           5.9280     3.7890     1.8120 ha         1 L1Z       0.130500
     46 H5           5.7790     2.3240    -0.1490 ha         1 L1Z       0.137500
     47 H6           4.1740     1.0950    -3.0130 ha         1 L1Z       0.141500
     48 H7           1.9970     2.1890    -2.7620 ha         1 L1Z       0.146500
     49 H8           1.7200     0.7580     1.2550 ha         1 L1Z       0.146500
     50 H9           3.9030    -0.3470     1.0170 ha         1 L1Z       0.141500
     51 H10          0.5980     3.2310    -0.0300 h1         1 L1Z       0.042200
     52 H11          0.0130     2.5780    -1.5510 h1         1 L1Z       0.042200
     53 H12         -2.2350     2.7690    -0.1990 h1         1 L1Z       0.035450
     54 H13         -1.2590     3.2280     1.1940 h1         1 L1Z       0.035450
     55 H14         -2.0640     1.3020     2.4750 hc         1 L1Z       0.066950
     56 H15         -3.4340     2.2300     1.8630 hc         1 L1Z       0.066950
     57 H16         -3.6630     0.6980    -0.0340 h1         1 L1Z       0.058700
     58 H17         -1.3710    -0.8830     1.1770 hc         1 L1Z       0.066950
     59 H18         -2.3110    -1.3310    -0.2470 hc         1 L1Z       0.066950
     60 H19         -0.1890    -0.2120    -0.8660 h1         1 L1Z       0.035450
     61 H20         -1.5910     0.6920    -1.4330 h1         1 L1Z       0.035450
     62 H21         -7.7380    -2.4050     2.9800 ha         1 L1Z       0.141000
     63 H22         -9.0630    -1.6650     1.0430 ha         1 L1Z       0.130000
     64 H23         -5.6670     0.4080    -0.5880 ha         1 L1Z       0.175000
     65 H24         -9.2530    -0.2790    -3.5570 hc         1 L1Z       0.057700
     66 H25        -10.1770     0.6720    -2.4250 hc         1 L1Z       0.057700
     67 H26         -8.2610     1.8080    -4.5410 hc         1 L1Z       0.044700
     68 H27        -10.0200     1.8400    -4.5940 hc         1 L1Z       0.044700
     69 H28         -9.1610     2.7860    -3.3840 hc         1 L1Z       0.044700
     70 H29          9.7130    -2.4810    -0.9710 hc         1 L1Z       0.058700
     71 H30          8.7600    -3.7160    -1.8110 hc         1 L1Z       0.058700
     72 H31          9.4810    -2.4080    -2.7250 hc         1 L1Z       0.058700
     73 H32          4.8090    -1.2980    -2.8650 hn         1 L1Z       0.331500
     74 H34         -5.0520    -2.1880     4.0490 hn         1 L1Z       0.353500
     75 H35         -9.2300    -0.6300    -0.8990 hn         1 L1Z       0.315500
     76 NBI         -8.3070    -0.2260    -0.9490 ns         1 L1Z      -0.475100
@<TRIPOS>BOND
     1     1     2 1   
     2     1    35 1   
     3     1    41 2   
     4     2    33 1   
     5     2    34 2   
     6     3     4 2   
     7     3     5 1   
     8     3    34 1   
     9     4     6 1   
    10     4    35 1   
    11     5     7 ar  
    12     5    11 ar  
    13     6    12 ar  
    14     6    16 ar  
    15     7     8 ar  
    16     7    42 1   
    17     8     9 ar  
    18     8    43 1   
    19     9    10 ar  
    20     9    44 1   
    21    10    11 ar  
    22    10    45 1   
    23    11    46 1   
    24    12    13 ar  
    25    12    47 1   
    26    13    14 ar  
    27    13    48 1   
    28    14    15 ar  
    29    14    17 1   
    30    15    16 ar  
    31    15    49 1   
    32    16    50 1   
    33    17    36 1   
    34    17    51 1   
    35    17    52 1   
    36    18    19 1   
    37    18    36 1   
    38    18    53 1   
    39    18    54 1   
    40    19    20 1   
    41    19    55 1   
    42    19    56 1   
    43    20    21 1   
    44    20    37 1   
    45    20    57 1   
    46    21    22 1   
    47    21    58 1   
    48    21    59 1   
    49    22    36 1   
    50    22    60 1   
    51    22    61 1   
    52    23    37 1   
    53    23    38 1   
    54    23    40 2   
    55    24    25 ar  
    56    24    26 ar  
    57    24    38 1   
    58    25    29 ar  
    59    25    37 1   
    60    26    27 ar  
    61    26    62 1   
    62    27    28 ar  
    63    27    63 1   
    64    28    29 ar  
    65    28    76 1   
    66    29    64 1   
    67    30    31 1   
    68    30    39 2   
    69    30    76 1   
    70    31    32 1   
    71    31    65 1   
    72    31    66 1   
    73    32    67 1   
    74    32    68 1   
    75    32    69 1   
    76    33    70 1   
    77    33    71 1   
    78    33    72 1   
    79    35    73 1   
    80    38    74 1   
    81    75    76 1   
@<TRIPOS>SUBSTRUCTURE
     1 L1Z         1 TEMP              0 ****  ****    0 ROOT
