@<TRIPOS>MOLECULE
L20
   53    57     1     0     0
SMALL
No Charge or Current Charge


@<TRIPOS>ATOM
      1 C1          -1.5110    -6.7270    10.8850 c3         1 L20      -0.102400
      2 C2          -2.7010    -6.3730    11.7290 cc         1 L20       0.361900
      3 N3          -3.0340    -7.0450    12.8430 nd         1 L20      -0.517100
      4 N4          -4.1830    -6.3760    13.2940 na         1 L20      -0.064400
      5 C6          -4.5290    -5.3290    12.4680 ca         1 L20      -0.030200
      6 C7          -5.5840    -4.4150    12.5460 ca         1 L20      -0.136000
      7 C8          -5.6750    -3.4350    11.5330 ca         1 L20      -0.059000
      8 C9          -4.7260    -3.3760    10.4630 cp         1 L20      -0.069000
      9 C10         -3.6730    -4.3370    10.4420 ca         1 L20      -0.021000
     10 C11         -3.6170    -5.2920    11.4660 ca         1 L20      -0.235900
     11 C12         -4.8240    -2.3180     9.4060 cp         1 L20      -0.040000
     12 C13         -6.0730    -1.7610     9.0130 ca         1 L20       0.304900
     13 N14         -6.2120    -0.7750     8.0930 nb         1 L20      -0.641000
     14 C15         -5.0840    -0.2840     7.5240 ca         1 L20       0.250900
     15 C16         -3.7890    -0.7660     7.8360 ca         1 L20       0.105100
     16 O17         -2.6350    -0.2330     7.3000 os         1 L20      -0.330100
     17 C18         -2.6190     1.0600     6.6720 c3         1 L20       0.131600
     18 C19         -1.1420     1.5510     6.5850 c3         1 L20       0.158500
     19 N21         -0.9990     2.6520     5.5910 n8         1 L20      -0.997200
     20 C25         -0.5460     1.9990     7.9540 c3         1 L20       0.006800
     21 C26         -0.4340     0.9050     8.9910 cc         1 L20      -0.133400
     22 C27          0.6010    -0.0160     9.1290 cd         1 L20      -0.151100
     23 N28          0.3080    -0.9100    10.1880 na         1 L20      -0.226700
     24 C30         -0.9190    -0.5180    10.6890 ca         1 L20      -0.049200
     25 C31         -1.6530    -1.1140    11.7240 ca         1 L20      -0.126000
     26 C32         -2.9040    -0.5540    12.0620 ca         1 L20      -0.091000
     27 C33         -3.3870     0.5810    11.3690 ca         1 L20      -0.138000
     28 C34         -2.6270     1.1590    10.3300 ca         1 L20      -0.068000
     29 C35         -1.3920     0.5720    10.0130 ca         1 L20      -0.089800
     30 C36         -3.6660    -1.8000     8.7740 ca         1 L20      -0.100000
     31 H1C1        -0.8210    -5.8780    10.8170 hc         1 L20       0.049700
     32 H1C2        -0.9630    -7.5780    11.3040 hc         1 L20       0.049700
     33 H1C3        -1.8260    -6.9920     9.8690 hc         1 L20       0.049700
     34 H4          -4.6740    -6.6650    14.1390 hn         1 L20       0.377000
     35 H7          -6.3060    -4.4520    13.3590 ha         1 L20       0.122000
     36 H8          -6.4780    -2.7050    11.5900 ha         1 L20       0.117000
     37 H10         -2.9310    -4.3430     9.6470 ha         1 L20       0.122000
     38 H13         -7.0010    -2.1260     9.4500 h4         1 L20       0.019100
     39 H36         -2.6760    -2.1550     9.0430 ha         1 L20       0.134000
     40 H15         -5.2310     0.5170     6.8010 h4         1 L20       0.017100
     41 H181        -3.0540     0.9880     5.6660 h1         1 L20       0.033200
     42 H182        -3.2040     1.7860     7.2510 h1         1 L20       0.033200
     43 H19         -0.5350     0.7080     6.2210 h1         1 L20       0.075700
     44 H211        -1.6230     3.4260     5.8490 hn         1 L20       0.397000
     45 H212        -1.3650     2.3390     4.6830 hn         1 L20       0.397000
     46 H251        -1.1460     2.8250     8.3550 hc         1 L20       0.051200
     47 H252         0.4550     2.4140     7.7810 hc         1 L20       0.051200
     48 H27          1.5120    -0.1080     8.5430 h4         1 L20       0.211000
     49 H28          0.8800    -1.6850    10.5120 hn         1 L20       0.349000
     50 H31         -1.2760    -1.9890    12.2480 ha         1 L20       0.115000
     51 H32         -3.4990    -1.0000    12.8560 ha         1 L20       0.109000
     52 H33         -4.3530     1.0050    11.6340 ha         1 L20       0.111000
     53 H34         -2.9970     2.0230     9.7850 ha         1 L20       0.108000
@<TRIPOS>BOND
     1     1     2 1   
     2     1    31 1   
     3     1    32 1   
     4     1    33 1   
     5     2     3 2   
     6     2    10 1   
     7     3     4 1   
     8     4     5 1   
     9     4    34 1   
    10     5     6 ar  
    11     5    10 ar  
    12     6     7 ar  
    13     6    35 1   
    14     7     8 ar  
    15     7    36 1   
    16     8     9 ar  
    17     8    11 1   
    18     9    10 ar  
    19     9    37 1   
    20    11    12 ar  
    21    11    30 ar  
    22    12    13 ar  
    23    12    38 1   
    24    13    14 ar  
    25    14    15 ar  
    26    14    40 1   
    27    15    16 1   
    28    15    30 ar  
    29    16    17 1   
    30    17    18 1   
    31    17    41 1   
    32    17    42 1   
    33    18    19 1   
    34    18    20 1   
    35    18    43 1   
    36    19    44 1   
    37    19    45 1   
    38    20    21 1   
    39    20    46 1   
    40    20    47 1   
    41    21    22 2   
    42    21    29 1   
    43    22    23 1   
    44    22    48 1   
    45    23    24 1   
    46    23    49 1   
    47    24    25 ar  
    48    24    29 ar  
    49    25    26 ar  
    50    25    50 1   
    51    26    27 ar  
    52    26    51 1   
    53    27    28 ar  
    54    27    52 1   
    55    28    29 ar  
    56    28    53 1   
    57    30    39 1   
@<TRIPOS>SUBSTRUCTURE
     1 L20         1 TEMP              0 ****  ****    0 ROOT
