@<TRIPOS>MOLECULE
L20
   53    57     1     0     0
SMALL
abcg2


@<TRIPOS>ATOM
      1 C1          -1.6980    -7.0920    10.6110 c3         1 L20      -0.102400
      2 C2          -2.7180    -6.5190    11.5300 cc         1 L20       0.361900
      3 N3          -3.0230    -7.0740    12.6770 nd         1 L20      -0.517100
      4 N4          -3.9640    -6.3120    13.2510 na         1 L20      -0.064400
      5 C6          -4.2920    -5.2450    12.4890 ca         1 L20      -0.030200
      6 C7          -5.2020    -4.1980    12.6690 ca         1 L20      -0.136000
      7 C8          -5.2790    -3.2610    11.6660 ca         1 L20      -0.059000
      8 C9          -4.4870    -3.3280    10.4930 cp         1 L20      -0.069000
      9 C10         -3.5930    -4.3700    10.3350 ca         1 L20      -0.021000
     10 C11         -3.4930    -5.3360    11.3390 ca         1 L20      -0.235900
     11 C12         -4.6090    -2.2770     9.4680 cp         1 L20      -0.040000
     12 C13         -5.8400    -1.6820     9.1760 ca         1 L20       0.304900
     13 N14         -5.9890    -0.7220     8.2810 nb         1 L20      -0.641000
     14 C15         -4.9220    -0.2730     7.6300 ca         1 L20       0.250900
     15 C16         -3.6460    -0.7870     7.8510 ca         1 L20       0.105100
     16 O17         -2.5310    -0.3500     7.2480 os         1 L20      -0.330100
     17 C18         -2.5230     0.9290     6.6370 c3         1 L20       0.131600
     18 C19         -1.0910     1.4630     6.5920 c3         1 L20       0.158500
     19 N21         -0.9670     2.5720     5.6580 n8         1 L20      -0.997200
     20 C25         -0.5780     1.9360     7.9590 c3         1 L20       0.006800
     21 C26         -0.5930     0.9120     9.0480 cc         1 L20      -0.133400
     22 C27          0.3690    -0.0260     9.2940 cd         1 L20      -0.151100
     23 N28         -0.0130    -0.8360    10.3300 na         1 L20      -0.226700
     24 C30         -1.2330    -0.4340    10.7880 ca         1 L20      -0.049200
     25 C31         -2.0380    -0.9640    11.7950 ca         1 L20      -0.126000
     26 C32         -3.2580    -0.3570    12.0200 ca         1 L20      -0.091000
     27 C33         -3.6700     0.7520    11.2640 ca         1 L20      -0.138000
     28 C34         -2.8700     1.2700    10.2660 ca         1 L20      -0.068000
     29 C35         -1.6300     0.6740    10.0080 ca         1 L20      -0.089800
     30 C36         -3.5020    -1.8190     8.7710 ca         1 L20      -0.100000
     31 H1C1        -0.8590    -6.4070    10.4770 hc         1 L20       0.049700
     32 H1C2        -1.3080    -8.0310    10.9980 hc         1 L20       0.049700
     33 H1C3        -2.1200    -7.2800     9.6230 hc         1 L20       0.049700
     34 H4          -4.3380    -6.5740    14.1470 hn         1 L20       0.377000
     35 H7          -5.8140    -4.1190    13.5570 ha         1 L20       0.122000
     36 H8          -5.9580    -2.4270    11.7930 ha         1 L20       0.117000
     37 H10         -2.9890    -4.4490     9.4380 ha         1 L20       0.122000
     38 H13         -6.7420    -2.0180     9.6770 h4         1 L20       0.019100
     39 H36         -2.5150    -2.2150     8.9720 ha         1 L20       0.134000
     40 H15         -5.0950     0.5190     6.9100 h4         1 L20       0.017100
     41 H181        -2.9190     0.8550     5.6170 h1         1 L20       0.033200
     42 H182        -3.1600     1.6340     7.1860 h1         1 L20       0.033200
     43 H19         -0.4400     0.6570     6.2370 h1         1 L20       0.075700
     44 H211        -1.5960     3.3210     5.9250 hn         1 L20       0.397000
     45 H212        -1.2520     2.2830     4.7300 hn         1 L20       0.397000
     46 H251        -1.1670     2.8090     8.2630 hc         1 L20       0.051200
     47 H252         0.4420     2.3010     7.8110 hc         1 L20       0.051200
     48 H27          1.3150    -0.1830     8.7990 h4         1 L20       0.211000
     49 H28          0.5400    -1.5840    10.7110 hn         1 L20       0.349000
     50 H31         -1.7300    -1.8310    12.3650 ha         1 L20       0.115000
     51 H32         -3.9130    -0.7540    12.7840 ha         1 L20       0.109000
     52 H33         -4.6360     1.1980    11.4650 ha         1 L20       0.111000
     53 H34         -3.2080     2.1230     9.6880 ha         1 L20       0.108000
@<TRIPOS>BOND
     1     1     2 1   
     2     1    31 1   
     3     1    32 1   
     4     1    33 1   
     5     2     3 2   
     6     2    10 1   
     7     3     4 1   
     8     4     5 1   
     9     4    34 1   
    10     5     6 ar  
    11     5    10 ar  
    12     6     7 ar  
    13     6    35 1   
    14     7     8 ar  
    15     7    36 1   
    16     8     9 ar  
    17     8    11 1   
    18     9    10 ar  
    19     9    37 1   
    20    11    12 ar  
    21    11    30 ar  
    22    12    13 ar  
    23    12    38 1   
    24    13    14 ar  
    25    14    15 ar  
    26    14    40 1   
    27    15    16 1   
    28    15    30 ar  
    29    16    17 1   
    30    17    18 1   
    31    17    41 1   
    32    17    42 1   
    33    18    19 1   
    34    18    20 1   
    35    18    43 1   
    36    19    44 1   
    37    19    45 1   
    38    20    21 1   
    39    20    46 1   
    40    20    47 1   
    41    21    22 2   
    42    21    29 1   
    43    22    23 1   
    44    22    48 1   
    45    23    24 1   
    46    23    49 1   
    47    24    25 ar  
    48    24    29 ar  
    49    25    26 ar  
    50    25    50 1   
    51    26    27 ar  
    52    26    51 1   
    53    27    28 ar  
    54    27    52 1   
    55    28    29 ar  
    56    28    53 1   
    57    30    39 1   
@<TRIPOS>SUBSTRUCTURE
     1 L20         1 TEMP              0 ****  ****    0 ROOT
