@<TRIPOS>MOLECULE
L21
   28    29     1     0     0
SMALL
abcg2


@<TRIPOS>ATOM
      1 C14         -3.8220     1.1380    -0.3160 c3         1 L21      -0.063400
      2 C13         -3.3460    -0.1330     0.3190 c2         1 L21      -0.082400
      3 C15         -2.2980    -0.8520    -0.0890 c2         1 L21      -0.254200
      4 C12         -4.1550    -0.5680     1.5040 c3         1 L21      -0.063400
      5 C6           2.1850     1.2780     0.0260 cc         1 L21       0.737900
      6 C5           2.0030    -0.0950     0.2350 cd         1 L21      -0.111600
      7 N9           2.7690    -1.0590     0.8120 nd         1 L21      -0.597100
      8 C4           0.8160    -0.6880    -0.2050 cd         1 L21      -0.091000
      9 N7           0.8090    -1.9840     0.0750 nc         1 L21      -0.434300
     10 C8           2.0110    -2.1370     0.6840 cc         1 L21       0.530200
     11 C80         -1.4130    -0.5410    -1.2560 c3         1 L21       0.113800
     12 N3          -0.1410     0.0570    -0.8310 na         1 L21      -0.145500
     13 C2           0.1210     1.3590    -0.9860 cd         1 L21       0.591400
     14 N1           1.2050     1.9700    -0.5980 nc         1 L21      -0.816000
     15 H141        -3.2600     1.4350    -1.1980 hc         1 L21       0.043533
     16 H142        -4.8710     1.0500    -0.6070 hc         1 L21       0.043533
     17 H143        -3.7670     1.9590     0.4030 hc         1 L21       0.043533
     18 H15         -2.0370    -1.7510     0.4600 ha         1 L21       0.205000
     19 H121        -5.1960    -0.7380     1.2170 hc         1 L21       0.043533
     20 H122        -3.7740    -1.4840     1.9540 hc         1 L21       0.043533
     21 H123        -4.1690     0.2100     2.2710 hc         1 L21       0.043533
     22 H801        -1.1720    -1.4500    -1.8060 h1         1 L21       0.069200
     23 H802        -1.8730     0.1490    -1.9600 h1         1 L21       0.069200
     24 H101         4.0260     1.4660     0.8740 hn         1 L21       0.513000
     25 H102         3.3600     2.9250     0.2340 hn         1 L21       0.513000
     26 H8           2.3270    -3.1050     1.0490 h5         1 L21       0.050800
     27 H2          -0.6460     1.9390    -1.4840 h5         1 L21       0.045100
     28 N10          3.2710     1.9390     0.4090 nv         1 L21      -1.041900
@<TRIPOS>BOND
     1     1     2 1   
     2     1    15 1   
     3     1    16 1   
     4     1    17 1   
     5     2     3 2   
     6     2     4 1   
     7     3    11 1   
     8     3    18 1   
     9     4    19 1   
    10     4    20 1   
    11     4    21 1   
    12     5     6 2   
    13     5    14 1   
    14     5    28 1   
    15     6     7 1   
    16     6     8 1   
    17     7    10 2   
    18     8     9 2   
    19     8    12 1   
    20     9    10 1   
    21    10    26 1   
    22    11    12 1   
    23    11    22 1   
    24    11    23 1   
    25    12    13 1   
    26    13    14 2   
    27    13    27 1   
    28    24    28 1   
    29    25    28 1   
@<TRIPOS>SUBSTRUCTURE
     1 L21         1 TEMP              0 ****  ****    0 ROOT
