@<TRIPOS>MOLECULE
L21
   28    29     1     0     0
SMALL
No Charge or Current Charge


@<TRIPOS>ATOM
      1 C14         -3.9990     1.0730    -0.5890 c3         1 L21      -0.063400
      2 C13         -3.4920    -0.0470     0.3080 c2         1 L21      -0.082400
      3 C15         -2.3720    -0.7680     0.1110 c2         1 L21      -0.254200
      4 C12         -4.4050    -0.2810     1.4980 c3         1 L21      -0.063400
      5 C6           2.2450     1.1970     0.2380 cc         1 L21       0.737900
      6 C5           2.1690    -0.1770     0.1850 cd         1 L21      -0.111600
      7 N9           3.1510    -1.0900     0.4950 nd         1 L21      -0.597100
      8 C4           1.0140    -0.7720    -0.2230 cd         1 L21      -0.091000
      9 N7           1.1340    -2.0740    -0.2090 nc         1 L21      -0.434300
     10 C8           2.4500    -2.2120     0.2350 cc         1 L21       0.530200
     11 C80         -1.3780    -0.6680    -1.0330 c3         1 L21       0.113800
     12 N3          -0.1120    -0.0550    -0.5970 na         1 L21      -0.145500
     13 C2           0.0510     1.3580    -0.5120 cd         1 L21       0.591400
     14 N1           1.1950     1.9780    -0.1180 nc         1 L21      -0.816000
     15 H141        -3.3300     1.2950    -1.4260 hc         1 L21       0.043533
     16 H142        -4.9780     0.8210    -1.0140 hc         1 L21       0.043533
     17 H143        -4.1160     2.0040    -0.0210 hc         1 L21       0.043533
     18 H15         -2.1020    -1.5490     0.8250 ha         1 L21       0.205000
     19 H121        -5.4150    -0.5550     1.1720 hc         1 L21       0.043533
     20 H122        -4.0370    -1.0900     2.1400 hc         1 L21       0.043533
     21 H123        -4.4850     0.6190     2.1180 hc         1 L21       0.043533
     22 H801        -1.1730    -1.6740    -1.4210 h1         1 L21       0.069200
     23 H802        -1.7830    -0.0930    -1.8730 h1         1 L21       0.069200
     24 H101         4.1740     1.4770     0.5240 hn         1 L21       0.513000
     25 H102         3.2410     2.8890     0.2270 hn         1 L21       0.513000
     26 H8           2.8530    -3.2110     0.3510 h5         1 L21       0.050800
     27 H2          -0.8150     1.9460    -0.7940 h5         1 L21       0.045100
     28 N10          3.2800     1.9480     0.5920 nv         1 L21      -1.041900
@<TRIPOS>BOND
     1     1     2 1   
     2     1    15 1   
     3     1    16 1   
     4     1    17 1   
     5     2     3 2   
     6     2     4 1   
     7     3    11 1   
     8     3    18 1   
     9     4    19 1   
    10     4    20 1   
    11     4    21 1   
    12     5     6 2   
    13     5    14 1   
    14     5    28 1   
    15     6     7 1   
    16     6     8 1   
    17     7    10 2   
    18     8     9 2   
    19     8    12 1   
    20     9    10 1   
    21    10    26 1   
    22    11    12 1   
    23    11    22 1   
    24    11    23 1   
    25    12    13 1   
    26    13    14 2   
    27    13    27 1   
    28    24    28 1   
    29    25    28 1   
@<TRIPOS>SUBSTRUCTURE
     1 L21         1 TEMP              0 ****  ****    0 ROOT
