@<TRIPOS>MOLECULE
L22
   20    21     1     0     0
SMALL
No Charge or Current Charge


@<TRIPOS>ATOM
      1 N13          3.8490    -1.2770    -0.1880 nv         1 L22      -1.045900
      2 C10          2.7980    -0.4530    -0.1380 cc         1 L22       0.698300
      3 S9           2.9240     1.2790    -0.0830 ss         1 L22      -0.103400
      4 C5           1.1830     1.3040    -0.0260 cc         1 L22      -0.220000
      5 N6           1.6100    -0.9900    -0.1100 nd         1 L22      -0.721000
      6 C2           0.6560     0.0260    -0.0470 cd         1 L22       0.250000
      7 C1          -0.7990    -0.2780    -0.0070 ca         1 L22       0.138000
      8 C4          -1.2910    -1.6030    -0.0300 ca         1 L22      -0.247000
      9 C8          -2.6820    -1.7940     0.0110 ca         1 L22       0.140900
     10 N11         -3.5320    -0.7510     0.0710 nb         1 L22      -0.244000
     11 C7          -2.9690     0.4650     0.0900 ca         1 L22       0.378900
     12 N3          -1.6620     0.7630     0.0540 nb         1 L22      -0.259000
     13 N12         -3.8190     1.5190     0.1480 nv         1 L22      -1.066900
     14 H131         4.7320    -0.9030     0.1380 hn         1 L22       0.480500
     15 H132         3.6480    -2.2390     0.0530 hn         1 L22       0.480500
     16 H5           0.6590     2.2500     0.0210 h4         1 L22       0.177000
     17 H4          -0.6200    -2.4560    -0.0790 ha         1 L22       0.153000
     18 H8          -3.1210    -2.7910    -0.0040 h4         1 L22       0.020100
     19 H121        -4.8060     1.3570    -0.0440 hn         1 L22       0.494500
     20 H122        -3.4600     2.4490    -0.0560 hn         1 L22       0.494500
@<TRIPOS>BOND
     1     1     2 1   
     2     1    14 1   
     3     1    15 1   
     4     2     3 1   
     5     2     5 2   
     6     3     4 1   
     7     4     6 2   
     8     4    16 1   
     9     5     6 1   
    10     6     7 1   
    11     7     8 ar  
    12     7    12 ar  
    13     8     9 ar  
    14     8    17 1   
    15     9    10 ar  
    16     9    18 1   
    17    10    11 ar  
    18    11    12 ar  
    19    11    13 1   
    20    13    19 1   
    21    13    20 1   
@<TRIPOS>SUBSTRUCTURE
     1 L22         1 TEMP              0 ****  ****    0 ROOT
