@<TRIPOS>MOLECULE
L22
   20    21     1     0     0
SMALL
bcc


@<TRIPOS>ATOM
      1 N13          3.8580    -1.2800    -0.1910 nv         1 L22      -0.935500
      2 C10          2.7460    -0.5210    -0.0940 cc         1 L22       0.698300
      3 S9           2.8490     1.2240    -0.0650 ss         1 L22      -0.248300
      4 C5           1.1300     1.2960    -0.0220 cc         1 L22      -0.158400
      5 N6           1.5360    -0.9820    -0.0730 nd         1 L22      -0.721000
      6 C2           0.6200     0.0380    -0.0340 cd         1 L22       0.315300
      7 C1          -0.8120    -0.2740    -0.0060 ca         1 L22       0.466300
      8 C4          -1.2650    -1.5890    -0.0170 ca         1 L22      -0.395600
      9 C8          -2.6400    -1.7550     0.0080 ca         1 L22       0.469200
     10 N11         -3.4960    -0.7480     0.0440 nb         1 L22      -0.770000
     11 C7          -2.9560     0.4790     0.0560 ca         1 L22       0.904900
     12 N3          -1.6520     0.7540     0.0290 nb         1 L22      -0.785000
     13 N12         -3.8060     1.5220     0.1290 nv         1 L22      -0.956500
     14 H131         4.7410    -0.8920     0.0970 hn         1 L22       0.425300
     15 H132         3.7460    -2.2600     0.0140 hn         1 L22       0.425300
     16 H5           0.6030     2.2350     0.0130 h4         1 L22       0.195000
     17 H4          -0.5900    -2.4300    -0.0470 ha         1 L22       0.171000
     18 H8          -3.0690    -2.7520    -0.0020 h4         1 L22       0.020100
     19 H121        -4.7850     1.3640    -0.0280 hn         1 L22       0.439300
     20 H122        -3.4560     2.4490    -0.0370 hn         1 L22       0.439300
@<TRIPOS>BOND
     1     1     2 1   
     2     1    14 1   
     3     1    15 1   
     4     2     3 1   
     5     2     5 2   
     6     3     4 1   
     7     4     6 2   
     8     4    16 1   
     9     5     6 1   
    10     6     7 1   
    11     7     8 ar  
    12     7    12 ar  
    13     8     9 ar  
    14     8    17 1   
    15     9    10 ar  
    16     9    18 1   
    17    10    11 ar  
    18    11    12 ar  
    19    11    13 1   
    20    13    19 1   
    21    13    20 1   
@<TRIPOS>SUBSTRUCTURE
     1 L22         1 TEMP              0 ****  ****    0 ROOT
