@<TRIPOS>MOLECULE
L23
   35    37     1     0     0
SMALL
No Charge or Current Charge


@<TRIPOS>ATOM
      1 Cl21        -2.8440     1.3400     2.1070 cl         1 L23      -0.184500
      2 C17         -2.9760    -0.1050     1.1060 ca         1 L23       0.141500
      3 C20         -3.5560    -1.2500     1.6750 ca         1 L23      -0.103500
      4 C22         -3.6800    -2.4290     0.9250 ca         1 L23      -0.080000
      5 C18         -3.2200    -2.4600    -0.4000 ca         1 L23      -0.103500
      6 C16         -2.6390    -1.3180    -0.9770 ca         1 L23       0.141500
      7 Cl19        -2.0690    -1.4380    -2.6430 cl         1 L23      -0.184500
      8 C15         -2.5120    -0.1200    -0.2320 ca         1 L23      -0.104300
      9 C11         -1.8730     1.1280    -0.8490 c3         1 L23       0.120900
     10 N7          -0.4590     1.3040    -0.4680 na         1 L23      -0.167500
     11 C3           0.5330     0.3530    -0.5980 cc         1 L23      -0.148000
     12 C8           0.1310     2.4360     0.0690 cc         1 L23       0.409800
     13 C12         -0.5710     3.7400     0.3290 c3         1 L23      -0.122400
     14 N4           1.4190     2.2370     0.2920 nd         1 L23      -0.658000
     15 C1           1.6760     0.9410    -0.1160 cd         1 L23       0.156000
     16 C2           3.0150     0.3080    -0.0360 ca         1 L23       0.158000
     17 C6           4.1390     0.9930     0.4740 ca         1 L23      -0.252000
     18 C10          5.3670     0.3130     0.5120 ca         1 L23       0.139900
     19 N13          5.4790    -0.9560     0.0750 nb         1 L23      -0.249000
     20 C9           4.3540    -1.5200    -0.3900 ca         1 L23       0.373900
     21 N5           3.1350    -0.9670    -0.4730 nb         1 L23      -0.266000
     22 N14          4.4620    -2.7960    -0.8330 nv         1 L23      -1.062900
     23 H20         -3.9080    -1.2230     2.7030 ha         1 L23       0.138500
     24 H22         -4.1290    -3.3160     1.3690 ha         1 L23       0.128000
     25 H18         -3.3110    -3.3730    -0.9830 ha         1 L23       0.138500
     26 H111        -1.9340     1.0990    -1.9430 h1         1 L23       0.077700
     27 H112        -2.4460     2.0110    -0.5420 h1         1 L23       0.077700
     28 H3           0.3630    -0.6380    -1.0000 h4         1 L23       0.175000
     29 H121        -1.2790     3.6450     1.1590 hc         1 L23       0.055033
     30 H122         0.1460     4.5280     0.5880 hc         1 L23       0.055033
     31 H123        -1.1230     4.0700    -0.5590 hc         1 L23       0.055033
     32 H6           4.0620     2.0170     0.8300 ha         1 L23       0.151000
     33 H10          6.2700     0.7870     0.8940 h4         1 L23       0.017100
     34 H141         5.3920    -3.1780    -0.9930 hn         1 L23       0.488500
     35 H142         3.7030    -3.1870    -1.3870 hn         1 L23       0.488500
@<TRIPOS>BOND
     1     1     2 1   
     2     2     3 ar  
     3     2     8 ar  
     4     3     4 ar  
     5     3    23 1   
     6     4     5 ar  
     7     4    24 1   
     8     5     6 ar  
     9     5    25 1   
    10     6     7 1   
    11     6     8 ar  
    12     8     9 1   
    13     9    10 1   
    14     9    26 1   
    15     9    27 1   
    16    10    11 1   
    17    10    12 1   
    18    11    15 2   
    19    11    28 1   
    20    12    13 1   
    21    12    14 2   
    22    13    29 1   
    23    13    30 1   
    24    13    31 1   
    25    14    15 1   
    26    15    16 1   
    27    16    17 ar  
    28    16    21 ar  
    29    17    18 ar  
    30    17    32 1   
    31    18    19 ar  
    32    18    33 1   
    33    19    20 ar  
    34    20    21 ar  
    35    20    22 1   
    36    22    34 1   
    37    22    35 1   
@<TRIPOS>SUBSTRUCTURE
     1 L23         1 TEMP              0 ****  ****    0 ROOT
