@<TRIPOS>MOLECULE
L23
   35    37     1     0     0
SMALL
bcc


@<TRIPOS>ATOM
      1 CL21        -2.4120     1.0910     2.1840 cl         1 L23      -0.092900
      2 C17         -2.7390    -0.2320     1.1170 ca         1 L23       0.049900
      3 C20         -3.2820    -1.3840     1.6580 ca         1 L23      -0.121500
      4 C22         -3.5450    -2.4590     0.8250 ca         1 L23      -0.098000
      5 C18         -3.2590    -2.3840    -0.5270 ca         1 L23      -0.121500
      6 C16         -2.7110    -1.2180    -1.0400 ca         1 L23       0.049900
      7 CL19        -2.3290    -1.1900    -2.7300 cl         1 L23      -0.092900
      8 C15         -2.4480    -0.1040    -0.2420 ca         1 L23      -0.104300
      9 C11         -1.8680     1.1690    -0.7920 c3         1 L23       0.091600
     10 N7          -0.4690     1.3150    -0.4300 na         1 L23      -0.188900
     11 C3           0.4800     0.3440    -0.5210 cc         1 L23      -0.180600
     12 C8           0.1420     2.4490     0.0180 cc         1 L23       0.409800
     13 C12         -0.5690     3.7350     0.2320 c3         1 L23      -0.122400
     14 N4           1.4150     2.2410     0.2190 nd         1 L23      -0.658000
     15 C1           1.6450     0.9330    -0.1110 cd         1 L23       0.221300
     16 C2           2.9600     0.3200    -0.0180 ca         1 L23       0.486300
     17 C6           4.0720     1.0430     0.4130 ca         1 L23      -0.400600
     18 C10          5.2680     0.3500     0.4490 ca         1 L23       0.468200
     19 N13          5.3860    -0.9230     0.1070 nb         1 L23      -0.775000
     20 C9           4.2590    -1.5290    -0.2870 ca         1 L23       0.899900
     21 N5           3.0560    -0.9600    -0.3660 nb         1 L23      -0.792000
     22 N14          4.3430    -2.8390    -0.6010 nv         1 L23      -0.952500
     23 H20         -3.4960    -1.4420     2.7160 ha         1 L23       0.156500
     24 H22         -3.9720    -3.3640     1.2340 ha         1 L23       0.146000
     25 H18         -3.4560    -3.2240    -1.1770 ha         1 L23       0.156500
     26 H111        -1.9670     1.2070    -1.8750 h1         1 L23       0.077700
     27 H112        -2.4140     2.0250    -0.3990 h1         1 L23       0.077700
     28 H3           0.2650    -0.6570    -0.8540 h4         1 L23       0.193000
     29 H121        -1.3670     3.6400     0.9700 hc         1 L23       0.055033
     30 H122         0.1380     4.4770     0.5930 hc         1 L23       0.055033
     31 H123        -1.0160     4.1120    -0.6900 hc         1 L23       0.055033
     32 H6           4.0050     2.0820     0.6950 ha         1 L23       0.169000
     33 H10          6.1770     0.8490     0.7680 h4         1 L23       0.017100
     34 H141         5.2530    -3.2340    -0.7630 hn         1 L23       0.433300
     35 H142         3.5730    -3.2640    -1.0900 hn         1 L23       0.433300
@<TRIPOS>BOND
     1     1     2 1   
     2     2     3 ar  
     3     2     8 ar  
     4     3     4 ar  
     5     3    23 1   
     6     4     5 ar  
     7     4    24 1   
     8     5     6 ar  
     9     5    25 1   
    10     6     7 1   
    11     6     8 ar  
    12     8     9 1   
    13     9    10 1   
    14     9    26 1   
    15     9    27 1   
    16    10    11 1   
    17    10    12 1   
    18    11    15 2   
    19    11    28 1   
    20    12    13 1   
    21    12    14 2   
    22    13    29 1   
    23    13    30 1   
    24    13    31 1   
    25    14    15 1   
    26    15    16 1   
    27    16    17 ar  
    28    16    21 ar  
    29    17    18 ar  
    30    17    32 1   
    31    18    19 ar  
    32    18    33 1   
    33    19    20 ar  
    34    20    21 ar  
    35    20    22 1   
    36    22    34 1   
    37    22    35 1   
@<TRIPOS>SUBSTRUCTURE
     1 L23         1 TEMP              0 ****  ****    0 ROOT
