@<TRIPOS>MOLECULE
L24
   55    57     1     0     0
SMALL
bcc


@<TRIPOS>ATOM
      1 N2A         -0.8150     0.5700    10.0950 nv         1 L24      -0.948500
      2 N1          -1.3670     0.2330     7.9030 nb         1 L24      -0.879000
      3 C2          -0.4390     0.5620     8.7940 ca         1 L24       0.952900
      4 N3           0.8350     0.8580     8.5350 nb         1 L24      -0.836000
      5 C4           1.1950     0.7980     7.2620 ca         1 L24       0.742600
      6 O4A          2.4790     1.1120     7.0590 oh         1 L24      -0.603300
      7 C5           0.3440     0.4500     6.2230 ca         1 L24      -0.521900
      8 C6          -0.9760     0.1800     6.6270 ca         1 L24       0.771200
      9 N7          -1.9030    -0.1620     5.7170 nu         1 L24      -0.871900
     10 C8          -1.6530    -0.1150     4.2960 c6         1 L24       0.231800
     11 C9          -0.2190    -0.5320     3.9900 c6         1 L24      -0.075700
     12 C10          0.7440     0.3570     4.7770 c6         1 L24       0.003900
     13 C11          0.0860    -0.4670     2.4970 c3         1 L24      -0.075400
     14 C12         -0.6680    -1.5060     1.6620 c3         1 L24      -0.019100
     15 C1B         -0.2800    -1.4400     0.2130 ca         1 L24      -0.108300
     16 C2B          0.8930    -2.0470    -0.2360 ca         1 L24      -0.145500
     17 C3B          1.2750    -1.9690    -1.5640 ca         1 L24      -0.095000
     18 C4B          0.5010    -1.2670    -2.4860 ca         1 L24      -0.099600
     19 C5B         -0.6760    -0.6670    -2.0450 ca         1 L24      -0.095000
     20 C6B         -1.0580    -0.7530    -0.7150 ca         1 L24      -0.145500
     21 C7B          0.9550    -1.2270    -3.9100 c          1 L24       0.660700
     22 O7B          1.7170    -2.0820    -4.3490 o          1 L24      -0.635100
     23 N            0.4640    -0.2340    -4.6630 ns         1 L24      -0.484900
     24 CA           0.9090    -0.0030    -6.0180 c3         1 L24      -0.052300
     25 CB          -0.0740     0.9270    -6.7290 c3         1 L24      -0.055400
     26 CG          -1.4670     0.3360    -6.8740 c3         1 L24      -0.201400
     27 CD          -2.4930     1.2140    -7.6120 c          1 L24       0.922600
     28 OE1         -2.0990     2.2940    -8.0960 o          1 L24      -0.865800
     29 OE2         -3.6560     0.7610    -7.6690 o          1 L24      -0.865800
     30 C            2.3510     0.5670    -6.0830 c          1 L24       0.929600
     31 O            2.8710     0.5480    -7.2170 o          1 L24      -0.846800
     32 OXT          2.8490     1.0070    -5.0330 o          1 L24      -0.846800
     33 HN21        -1.8010     0.5850    10.2950 hn         1 L24       0.428300
     34 HN22        -0.2200     1.0390    10.7560 hn         1 L24       0.428300
     35 HO4          2.7000     1.0920     6.1210 ho         1 L24       0.441000
     36 HN7         -2.8500    -0.2700     6.0420 hn         1 L24       0.444800
     37 H81         -1.8330     0.8900     3.8930 h1         1 L24       0.048700
     38 H82         -2.3650    -0.7840     3.8130 h1         1 L24       0.048700
     39 H9          -0.0870    -1.5660     4.3330 hc         1 L24       0.059700
     40 H101         0.7760     1.3500     4.3130 hc         1 L24       0.042700
     41 H102         1.7510    -0.0600     4.6720 hc         1 L24       0.042700
     42 H111        -0.1360     0.5370     2.1210 hc         1 L24       0.052700
     43 H112         1.1600    -0.6180     2.3540 hc         1 L24       0.052700
     44 H121        -0.4490    -2.5030     2.0540 hc         1 L24       0.034200
     45 H122        -1.7470    -1.3600     1.7560 hc         1 L24       0.034200
     46 H2B          1.5120    -2.5960     0.4640 ha         1 L24       0.111500
     47 H3B          2.1850    -2.4570    -1.8880 ha         1 L24       0.152500
     48 H5B         -1.3280    -0.1470    -2.7360 ha         1 L24       0.152500
     49 H6B         -1.9840    -0.2880    -0.3990 ha         1 L24       0.111500
     50 HN           0.0260     0.5430    -4.1950 hn         1 L24       0.297500
     51 HA           0.9060    -0.9620    -6.5440 h1         1 L24       0.057700
     52 HB1         -0.1200     1.8820    -6.1940 hc         1 L24       0.050200
     53 HB2          0.3360     1.1530    -7.7140 hc         1 L24       0.050200
     54 HG1         -1.3960    -0.6230    -7.4020 hc         1 L24       0.009200
     55 HG2         -1.8810     0.0830    -5.8930 hc         1 L24       0.009200
@<TRIPOS>BOND
     1     1     3 1   
     2     1    33 1   
     3     1    34 1   
     4     2     3 ar  
     5     2     8 ar  
     6     3     4 ar  
     7     4     5 ar  
     8     5     6 1   
     9     5     7 ar  
    10     6    35 1   
    11     7     8 ar  
    12     7    12 1   
    13     8     9 1   
    14     9    10 1   
    15     9    36 1   
    16    10    11 1   
    17    10    37 1   
    18    10    38 1   
    19    11    12 1   
    20    11    13 1   
    21    11    39 1   
    22    12    40 1   
    23    12    41 1   
    24    13    14 1   
    25    13    42 1   
    26    13    43 1   
    27    14    15 1   
    28    14    44 1   
    29    14    45 1   
    30    15    16 ar  
    31    15    20 ar  
    32    16    17 ar  
    33    16    46 1   
    34    17    18 ar  
    35    17    47 1   
    36    18    19 ar  
    37    18    21 1   
    38    19    20 ar  
    39    19    48 1   
    40    20    49 1   
    41    21    22 2   
    42    21    23 1   
    43    23    24 1   
    44    23    50 1   
    45    24    25 1   
    46    24    30 1   
    47    24    51 1   
    48    25    26 1   
    49    25    52 1   
    50    25    53 1   
    51    26    27 1   
    52    26    54 1   
    53    26    55 1   
    54    27    28 1   
    55    27    29 1   
    56    30    31 1   
    57    30    32 1   
@<TRIPOS>SUBSTRUCTURE
     1 L24         1 TEMP              0 ****  ****    0 ROOT
