@<TRIPOS>MOLECULE
L24
   55    57     1     0     0
SMALL
No Charge or Current Charge


@<TRIPOS>ATOM
      1 N2A         -0.6560     0.3210    10.3220 nv         1 L24      -1.058900
      2 N1          -1.2630     0.2420     8.1330 nb         1 L24      -0.353000
      3 C2          -0.2770     0.2110     9.0310 ca         1 L24       0.426900
      4 N3           1.0340     0.0890     8.8080 nb         1 L24      -0.310000
      5 C4           1.3990    -0.0220     7.5230 ca         1 L24       0.414300
      6 O4A          2.7240    -0.1330     7.2660 oh         1 L24      -0.642300
      7 C5           0.4640    -0.0160     6.4770 ca         1 L24      -0.391300
      8 C6          -0.8760     0.1330     6.8590 ca         1 L24       0.442900
      9 N7          -1.8760     0.1600     5.9130 nu         1 L24      -0.927100
     10 C8          -1.6010     0.3460     4.4800 c6         1 L24       0.231800
     11 C9          -0.3640    -0.5090     4.0900 c6         1 L24      -0.075700
     12 C10          0.8480    -0.1330     4.9900 c6         1 L24       0.003900
     13 C11          0.0030    -0.3940     2.5780 c3         1 L24      -0.075400
     14 C12         -1.0760    -0.8980     1.5920 c3         1 L24      -0.019100
     15 C1B         -0.5940    -0.8540     0.1490 ca         1 L24      -0.108300
     16 C2B         -0.0050    -1.9860    -0.4400 ca         1 L24      -0.127500
     17 C3B          0.4450    -1.9430    -1.7710 ca         1 L24      -0.077000
     18 C4B          0.3170    -0.7660    -2.5430 ca         1 L24      -0.099600
     19 C5B         -0.2770     0.3710    -1.9400 ca         1 L24      -0.077000
     20 C6B         -0.7250     0.3230    -0.6090 ca         1 L24      -0.127500
     21 C7B          0.8140    -0.7570    -3.9780 c          1 L24       0.593700
     22 O7B          1.3220    -1.7460    -4.4950 o          1 L24      -0.635100
     23 N            0.6720     0.4300    -4.6730 ns         1 L24      -0.417900
     24 CA           1.0480     0.6560    -6.0910 c3         1 L24      -0.052300
     25 CB          -0.1670     0.5290    -7.0480 c3         1 L24      -0.055400
     26 CG          -0.8320    -0.8730    -7.0720 c3         1 L24      -0.201400
     27 CD          -1.9470    -0.9120    -8.1350 c          1 L24       0.712000
     28 OE1         -1.6470    -1.2260    -9.2770 o          1 L24      -0.760500
     29 OE2         -3.0740    -0.5790    -7.8030 o          1 L24      -0.760500
     30 C            1.7420     2.0450    -6.2430 c          1 L24       0.719000
     31 O            2.8420     2.0860    -6.7750 o          1 L24      -0.741500
     32 OXT          1.2040     3.0240    -5.7430 o          1 L24      -0.741500
     33 HN21        -1.6010     0.6400    10.5170 hn         1 L24       0.483500
     34 HN22         0.0540     0.5360    11.0180 hn         1 L24       0.483500
     35 HO4          2.8100    -0.1720     6.2920 ho         1 L24       0.480000
     36 HN7         -2.8110     0.3550     6.2720 hn         1 L24       0.500000
     37 H81         -1.3850     1.4040     4.2690 h1         1 L24       0.048700
     38 H82         -2.4780     0.0590     3.8830 h1         1 L24       0.048700
     39 H9          -0.6090    -1.5650     4.2730 hc         1 L24       0.059700
     40 H101         1.2690     0.8260     4.6560 hc         1 L24       0.042700
     41 H102         1.6370    -0.8860     4.8540 hc         1 L24       0.042700
     42 H111         0.2400     0.6490     2.3310 hc         1 L24       0.052700
     43 H112         0.9210    -0.9650     2.3890 hc         1 L24       0.052700
     44 H121        -1.3610    -1.9220     1.8630 hc         1 L24       0.034200
     45 H122        -1.9830    -0.2900     1.6940 hc         1 L24       0.034200
     46 H2B          0.1070    -2.9030     0.1330 ha         1 L24       0.093500
     47 H3B          0.8960    -2.8340    -2.2020 ha         1 L24       0.134500
     48 H5B         -0.4010     1.3020    -2.4870 ha         1 L24       0.134500
     49 H6B         -1.1760     1.2070    -0.1640 ha         1 L24       0.093500
     50 HN           0.2750     1.2100    -4.1670 hn         1 L24       0.297500
     51 HA           1.7910    -0.0980    -6.3790 h1         1 L24       0.057700
     52 HB1         -0.9200     1.2810    -6.7790 hc         1 L24       0.050200
     53 HB2          0.1680     0.7750    -8.0640 hc         1 L24       0.050200
     54 HG1         -0.0320    -1.5780    -7.3290 hc         1 L24       0.009200
     55 HG2         -1.2540    -1.0280    -6.0720 hc         1 L24       0.009200
@<TRIPOS>BOND
     1     1     3 1   
     2     1    33 1   
     3     1    34 1   
     4     2     3 ar  
     5     2     8 ar  
     6     3     4 ar  
     7     4     5 ar  
     8     5     6 1   
     9     5     7 ar  
    10     6    35 1   
    11     7     8 ar  
    12     7    12 1   
    13     8     9 1   
    14     9    10 1   
    15     9    36 1   
    16    10    11 1   
    17    10    37 1   
    18    10    38 1   
    19    11    12 1   
    20    11    13 1   
    21    11    39 1   
    22    12    40 1   
    23    12    41 1   
    24    13    14 1   
    25    13    42 1   
    26    13    43 1   
    27    14    15 1   
    28    14    44 1   
    29    14    45 1   
    30    15    16 ar  
    31    15    20 ar  
    32    16    17 ar  
    33    16    46 1   
    34    17    18 ar  
    35    17    47 1   
    36    18    19 ar  
    37    18    21 1   
    38    19    20 ar  
    39    19    48 1   
    40    20    49 1   
    41    21    22 2   
    42    21    23 1   
    43    23    24 1   
    44    23    50 1   
    45    24    25 1   
    46    24    30 1   
    47    24    51 1   
    48    25    26 1   
    49    25    52 1   
    50    25    53 1   
    51    26    27 1   
    52    26    54 1   
    53    26    55 1   
    54    27    28 1   
    55    27    29 1   
    56    30    31 1   
    57    30    32 1   
@<TRIPOS>SUBSTRUCTURE
     1 L24         1 TEMP              0 ****  ****    0 ROOT
