@<TRIPOS>MOLECULE
L26
   46    47     1     0     0
SMALL
No Charge or Current Charge


@<TRIPOS>ATOM
      1 C15          3.7350    -0.6940     0.0240 ca         1 L26       0.166100
      2 C14          4.0780    -2.0450    -0.1900 ca         1 L26      -0.230000
      3 C12          1.7240    -2.5950    -0.4440 ca         1 L26      -0.208000
      4 C4          -4.4530     0.4490    -0.2530 cc         1 L26      -0.258600
      5 C3          -3.1610     1.0730    -0.1630 cc         1 L26       0.012700
      6 C11          1.3650    -1.2520    -0.2340 ca         1 L26       0.016000
      7 C16          2.3860    -0.3050     0.0010 ca         1 L26      -0.162000
      8 C13          3.0700    -2.9930    -0.4230 ca         1 L26      -0.044000
      9 C7          -2.1990     0.0830    -0.2340 cd         1 L26      -0.277600
     10 C5          -4.2620    -0.9130    -0.4150 cd         1 L26      -0.086300
     11 C8          -0.7110     0.2640    -0.1280 c          1 L26       0.650700
     12 C26         -5.2080    -2.0840    -0.5590 c3         1 L26      -0.040800
     13 C29         -7.0920     0.4010    -0.3370 c3         1 L26      -0.194100
     14 C2          -2.9290     2.5680    -0.0180 c3         1 L26      -0.024100
     15 N6          -2.8880    -1.1260    -0.4070 na         1 L26      -0.093000
     16 N10         -0.0200    -0.9330    -0.2700 ns         1 L26      -0.158000
     17 O28         -5.8680     2.3710     0.0350 o          1 L26      -0.536100
     18 O9          -0.1640     1.3400     0.0700 o          1 L26      -0.551100
     19 O1           4.6820     0.2820     0.2580 os         1 L26      -0.305100
     20 C6          -2.9210     3.0380     1.4500 c3         1 L26      -0.079100
     21 C9           6.0980    -0.0110     0.3020 c3         1 L26       0.072600
     22 C10          6.9490     1.2510     0.5810 c          1 L26       0.605100
     23 O11          6.4890     2.3720     0.7460 o          1 L26      -0.560100
     24 N12          8.2890     1.0610     0.6370 nt         1 L26      -0.617000
     25 H1           5.1120    -2.3760    -0.1790 ha         1 L26       0.115000
     26 H2           0.9540    -3.3420    -0.6260 ha         1 L26       0.109000
     27 H3           2.1610     0.7420     0.1710 ha         1 L26       0.167000
     28 H4           3.3320    -4.0370    -0.5880 ha         1 L26       0.111000
     29 H5          -5.8330    -1.9950    -1.4550 hc         1 L26       0.053700
     30 H6          -4.6570    -3.0270    -0.6580 hc         1 L26       0.053700
     31 H7          -5.8550    -2.1940     0.3180 hc         1 L26       0.053700
     32 H8          -7.0750    -0.1480    -1.2830 hc         1 L26       0.056033
     33 H9          -7.1540    -0.3810     0.4250 hc         1 L26       0.056033
     34 H10         -7.9670     1.0580    -0.2840 hc         1 L26       0.056033
     35 H11         -1.9850     2.8600    -0.4870 hc         1 L26       0.069200
     36 H12         -3.6690     3.1400    -0.5850 hc         1 L26       0.069200
     37 H13         -2.4610    -2.0430    -0.4980 hn         1 L26       0.347000
     38 H14         -0.6100    -1.7360    -0.4330 hn         1 L26       0.145000
     39 H15         -2.1210     2.5380     2.0090 hc         1 L26       0.034700
     40 H16         -2.7560     4.1200     1.5060 hc         1 L26       0.034700
     41 H17         -3.8750     2.8090     1.9390 hc         1 L26       0.034700
     42 H18          6.3170    -0.7380     1.0930 h1         1 L26       0.047200
     43 H19          6.4350    -0.4320    -0.6530 h1         1 L26       0.047200
     44 H20          8.6780     0.1390     0.5010 hn         1 L26       0.316000
     45 H21          8.8920     1.8500     0.8160 hn         1 L26       0.316000
     46 C27         -5.7790     1.1680    -0.1700 c          1 L26       0.609700
@<TRIPOS>BOND
     1     1     2 ar  
     2     1     7 ar  
     3     1    19 1   
     4     2     8 ar  
     5     2    25 1   
     6     3     6 ar  
     7     3     8 ar  
     8     3    26 1   
     9     4     5 1   
    10     4    10 2   
    11     4    46 1   
    12     5     9 2   
    13     5    14 1   
    14     6     7 ar  
    15     6    16 1   
    16     7    27 1   
    17     8    28 1   
    18     9    11 1   
    19     9    15 1   
    20    10    12 1   
    21    10    15 1   
    22    11    16 1   
    23    11    18 2   
    24    12    29 1   
    25    12    30 1   
    26    12    31 1   
    27    13    32 1   
    28    13    33 1   
    29    13    34 1   
    30    13    46 1   
    31    14    20 1   
    32    14    35 1   
    33    14    36 1   
    34    15    37 1   
    35    16    38 1   
    36    17    46 2   
    37    19    21 1   
    38    20    39 1   
    39    20    40 1   
    40    20    41 1   
    41    21    22 1   
    42    21    42 1   
    43    21    43 1   
    44    22    23 2   
    45    22    24 1   
    46    24    44 1   
    47    24    45 1   
@<TRIPOS>SUBSTRUCTURE
     1 L26         1 TEMP              0 ****  ****    0 ROOT
