@<TRIPOS>MOLECULE
L26
   46    47     1     0     0
SMALL
bcc


@<TRIPOS>ATOM
      1 C15          3.6560    -0.6920     0.1090 ca         1 L26       0.166100
      2 C14          3.9790    -1.9810     0.5150 ca         1 L26      -0.248000
      3 C12          1.6220    -2.4980     0.6520 ca         1 L26      -0.226000
      4 C4          -4.3400     0.5530    -0.3450 cc         1 L26      -0.258600
      5 C3          -3.0960     1.1530     0.0370 cc         1 L26       0.012700
      6 C11          1.3030    -1.1960     0.2480 ca         1 L26       0.108600
      7 C16          2.3240    -0.2940    -0.0250 ca         1 L26      -0.180000
      8 C13          2.9440    -2.8710     0.7800 ca         1 L26      -0.062000
      9 C7          -2.1120     0.2380    -0.2670 cd         1 L26      -0.226900
     10 C5          -4.0500    -0.7050    -0.8830 cd         1 L26      -0.035600
     11 C8          -0.6590     0.3110    -0.0630 c          1 L26       0.717700
     12 C26         -4.8840    -1.7820    -1.4830 c3         1 L26      -0.040800
     13 C29         -6.8580     0.4790    -0.8100 c3         1 L26      -0.194100
     14 C2          -2.8880     2.4690     0.7200 c3         1 L26      -0.024100
     15 N6          -2.7240    -0.8710    -0.8050 na         1 L26      -0.144100
     16 N10         -0.0570    -0.9010     0.1190 ns         1 L26      -0.484100
     17 O28         -5.8120     2.2210     0.3920 o          1 L26      -0.536100
     18 O9          -0.0520     1.3690    -0.0590 o          1 L26      -0.551100
     19 O1           4.5640     0.2620    -0.1850 os         1 L26      -0.281900
     20 C6          -3.0910     2.3710     2.2320 c3         1 L26      -0.079100
     21 C9           5.9240    -0.0520    -0.0660 c3         1 L26       0.049400
     22 C10          6.7260     1.1720    -0.4790 c          1 L26       0.672100
     23 O11          6.2070     2.1650    -0.9560 o          1 L26      -0.560100
     24 N12          8.0430     1.0350    -0.2760 nt         1 L26      -0.684000
     25 H1           5.0030    -2.3090     0.6300 ha         1 L26       0.133000
     26 H2           0.8340    -3.2110     0.8620 ha         1 L26       0.127000
     27 H3           2.1170     0.7160    -0.3420 ha         1 L26       0.185000
     28 H4           3.1830    -3.8780     1.0950 ha         1 L26       0.129000
     29 H5          -5.3350    -1.4700    -2.4250 hc         1 L26       0.053700
     30 H6          -4.2750    -2.6620    -1.6870 hc         1 L26       0.053700
     31 H7          -5.6900    -2.0910    -0.8190 hc         1 L26       0.053700
     32 H8          -6.7060     0.2560    -1.8660 hc         1 L26       0.056033
     33 H9          -7.0640    -0.4670    -0.3060 hc         1 L26       0.056033
     34 H10         -7.7360     1.1140    -0.7100 hc         1 L26       0.056033
     35 H11         -1.8810     2.8260     0.5170 hc         1 L26       0.069200
     36 H12         -3.5720     3.2100     0.3100 hc         1 L26       0.069200
     37 H13         -2.2470    -1.6640    -1.2070 hn         1 L26       0.296700
     38 H14         -0.6620    -1.6860     0.3080 hn         1 L26       0.311500
     39 H15         -2.3830     1.6700     2.6750 hc         1 L26       0.034700
     40 H16         -2.9390     3.3420     2.7030 hc         1 L26       0.034700
     41 H17         -4.0970     2.0320     2.4740 hc         1 L26       0.034700
     42 H18          6.1850    -0.3370     0.9600 h1         1 L26       0.047200
     43 H19          6.2050    -0.8900    -0.7160 h1         1 L26       0.047200
     44 H20          8.4420     0.1960     0.1080 hn         1 L26       0.316000
     45 H21          8.6810     1.7610    -0.5590 hn         1 L26       0.316000
     46 C27         -5.6610     1.1660    -0.2020 c          1 L26       0.609700
@<TRIPOS>BOND
     1     1     2 ar  
     2     1     7 ar  
     3     1    19 1   
     4     2     8 ar  
     5     2    25 1   
     6     3     6 ar  
     7     3     8 ar  
     8     3    26 1   
     9     4     5 1   
    10     4    10 2   
    11     4    46 1   
    12     5     9 2   
    13     5    14 1   
    14     6     7 ar  
    15     6    16 1   
    16     7    27 1   
    17     8    28 1   
    18     9    11 1   
    19     9    15 1   
    20    10    12 1   
    21    10    15 1   
    22    11    16 1   
    23    11    18 2   
    24    12    29 1   
    25    12    30 1   
    26    12    31 1   
    27    13    32 1   
    28    13    33 1   
    29    13    34 1   
    30    13    46 1   
    31    14    20 1   
    32    14    35 1   
    33    14    36 1   
    34    15    37 1   
    35    16    38 1   
    36    17    46 2   
    37    19    21 1   
    38    20    39 1   
    39    20    40 1   
    40    20    41 1   
    41    21    22 1   
    42    21    42 1   
    43    21    43 1   
    44    22    23 2   
    45    22    24 1   
    46    24    44 1   
    47    24    45 1   
@<TRIPOS>SUBSTRUCTURE
     1 L26         1 TEMP              0 ****  ****    0 ROOT
