@<TRIPOS>MOLECULE
L27
   81    86     1     0     0
SMALL
No Charge or Current Charge


@<TRIPOS>ATOM
      1 O01         16.5010    21.6520     4.4740 os         1 L27      -0.459100
      2 C02         15.5500    21.3200     5.3980 c          1 L27       0.639100
      3 O03         15.1500    20.1960     5.6600 o          1 L27      -0.542000
      4 NP4         15.1000    22.4680     5.9790 ns         1 L27      -0.493900
      5 C05         14.0790    22.5420     7.0320 c3         1 L27       0.128700
      6 C06         12.9400    23.5400     6.6570 c3         1 L27       0.171300
      7 O07         13.4700    24.8460     6.4100 oh         1 L27      -0.676000
      8 C08         12.1390    23.1070     5.3990 c3         1 L27      -0.098400
      9 C09         10.9680    24.0490     4.9800 c5         1 L27       0.095200
     10 C10         10.1810    23.4100     3.7950 c3         1 L27      -0.035100
     11 C11          8.9090    24.1520     3.3810 ca         1 L27      -0.090300
     12 C12          8.9670    25.2340     2.4790 ca         1 L27      -0.104500
     13 C13          7.7930    25.9120     2.1050 ca         1 L27      -0.108000
     14 C14          6.5510    25.5080     2.6230 ca         1 L27      -0.113000
     15 C15          6.4850    24.4260     3.5160 ca         1 L27      -0.108000
     16 C16          7.6590    23.7510     3.8930 ca         1 L27      -0.104500
     17 C17         10.0050    24.3090     6.1820 c          1 L27       0.584300
     18 O18          9.4320    23.5350     6.9410 o          1 L27      -0.535100
     19 N29         11.5230    25.3900     4.5670 nu         1 L27      -0.810200
     20 C30         10.7720    26.3330     5.2850 c2         1 L27       0.094000
     21 C35          9.9440    25.7800     6.1840 ce         1 L27      -0.328400
     22 C36         14.7300    22.8580     8.4020 c3         1 L27      -0.049100
     23 C37         15.7840    21.8320     8.8090 ca         1 L27      -0.084300
     24 C38         15.3920    20.5900     9.3450 ca         1 L27      -0.100500
     25 C39         16.3590    19.6370     9.7080 ca         1 L27      -0.108500
     26 C40         17.7250    19.9210     9.5380 ca         1 L27      -0.108000
     27 C41         18.1220    21.1580     9.0030 ca         1 L27      -0.108500
     28 C42         17.1550    22.1110     8.6400 ca         1 L27      -0.100500
     29 C44         17.0380    20.5330     3.7150 c5         1 L27       0.159300
     30 C45         18.2790    21.0600     2.9170 c5         1 L27       0.152600
     31 O46         17.8920    21.0410     1.5220 os         1 L27      -0.458000
     32 C47         16.4610    21.1540     1.4790 c5         1 L27       0.155600
     33 C48         16.0240    20.1720     2.5860 c5         1 L27      -0.139400
     34 C49          7.5200    26.4390     6.4600 c6         1 L27       0.115000
     35 C50          8.9390    26.5300     7.0700 c6         1 L27       0.053800
     36 C51          9.3570    27.9940     7.2550 ca         1 L27      -0.055300
     37 C52          8.8700    28.9860     6.3690 ca         1 L27      -0.155600
     38 C53          7.9010    28.6210     5.2700 c          1 L27       0.572600
     39 N54          7.3360    27.3740     5.3440 ns         1 L27      -0.500900
     40 C55         10.2730    28.3420     8.2650 ca         1 L27      -0.113000
     41 C56         10.7020    29.6720     8.4060 ca         1 L27      -0.089000
     42 C57         10.2250    30.6580     7.5280 ca         1 L27      -0.123000
     43 C58          9.3170    30.3180     6.5110 ca         1 L27      -0.057000
     44 O59          7.6270    29.3700     4.3450 o          1 L27      -0.576000
     45 H1          15.5080    23.3290     5.6420 hn         1 L27       0.333500
     46 H2          13.6110    21.5520     7.1260 h1         1 L27       0.086700
     47 H3          12.2420    23.5810     7.5050 h1         1 L27       0.047700
     48 H4          12.8340    25.2360     5.7490 ho         1 L27       0.462000
     49 H5          11.7400    22.1030     5.5950 hc         1 L27       0.072200
     50 H6          12.8300    22.9920     4.5540 hc         1 L27       0.072200
     51 H7           9.9120    22.3790     4.0590 hc         1 L27       0.064200
     52 H8          10.8440    23.3130     2.9260 hc         1 L27       0.064200
     53 H9           9.9210    25.5510     2.0660 ha         1 L27       0.113000
     54 H10          7.8470    26.7480     1.4110 ha         1 L27       0.119000
     55 H11          5.6430    26.0300     2.3280 ha         1 L27       0.119000
     56 H12          5.5240    24.1100     3.9170 ha         1 L27       0.119000
     57 H13          7.5940    22.9160     4.5870 ha         1 L27       0.113000
     58 H14         11.7040    25.5950     3.5770 hn         1 L27       0.495000
     59 H15         10.8780    27.4010     5.0580 h4         1 L27       0.221000
     60 H16         13.9450    22.9020     9.1670 hc         1 L27       0.060700
     61 H17         15.1730    23.8610     8.3680 hc         1 L27       0.060700
     62 H18         14.3370    20.3600     9.4760 ha         1 L27       0.110000
     63 H19         16.0500    18.6790    10.1210 ha         1 L27       0.110500
     64 H20         18.4740    19.1830     9.8190 ha         1 L27       0.110000
     65 H21         19.1790    21.3780     8.8690 ha         1 L27       0.110500
     66 H22         17.4710    23.0640     8.2220 ha         1 L27       0.110000
     67 H23         17.2900    19.6940     4.3790 h1         1 L27       0.084700
     68 H24         19.1610    20.4220     3.0560 h1         1 L27       0.057200
     69 H25         18.5420    22.0860     3.2060 h1         1 L27       0.057200
     70 H26         16.0860    20.8800     0.4840 h1         1 L27       0.046700
     71 H27         16.1680    22.1900     1.7040 h1         1 L27       0.046700
     72 H28         14.9750    20.3030     2.8720 hc         1 L27       0.070200
     73 H29         16.1480    19.1340     2.2590 hc         1 L27       0.070200
     74 H30          6.7810    26.6920     7.2330 h1         1 L27       0.054200
     75 H31          7.3100    25.4150     6.1220 h1         1 L27       0.054200
     76 H32          8.9130    26.0420     8.0540 hc         1 L27       0.080700
     77 H33          6.7360    27.1050     4.5740 hn         1 L27       0.325500
     78 H34         10.6610    27.5790     8.9370 ha         1 L27       0.119000
     79 H35         11.4100    29.9350     9.1890 ha         1 L27       0.116000
     80 H36         10.5620    31.6870     7.6330 ha         1 L27       0.119000
     81 H37          8.9580    31.0920     5.8360 ha         1 L27       0.137000
@<TRIPOS>BOND
     1     1     2 1   
     2     1    29 1   
     3     2     3 2   
     4     2     4 1   
     5     4     5 1   
     6     4    45 1   
     7     5     6 1   
     8     5    22 1   
     9     5    46 1   
    10     6     7 1   
    11     6     8 1   
    12     6    47 1   
    13     7    48 1   
    14     8     9 1   
    15     8    49 1   
    16     8    50 1   
    17     9    10 1   
    18     9    17 1   
    19     9    19 1   
    20    10    11 1   
    21    10    51 1   
    22    10    52 1   
    23    11    12 ar  
    24    11    16 ar  
    25    12    13 ar  
    26    12    53 1   
    27    13    14 ar  
    28    13    54 1   
    29    14    15 ar  
    30    14    55 1   
    31    15    16 ar  
    32    15    56 1   
    33    16    57 1   
    34    17    18 2   
    35    17    21 1   
    36    19    20 1   
    37    19    58 1   
    38    20    21 2   
    39    20    59 1   
    40    21    35 1   
    41    22    23 1   
    42    22    60 1   
    43    22    61 1   
    44    23    24 ar  
    45    23    28 ar  
    46    24    25 ar  
    47    24    62 1   
    48    25    26 ar  
    49    25    63 1   
    50    26    27 ar  
    51    26    64 1   
    52    27    28 ar  
    53    27    65 1   
    54    28    66 1   
    55    29    30 1   
    56    29    33 1   
    57    29    67 1   
    58    30    31 1   
    59    30    68 1   
    60    30    69 1   
    61    31    32 1   
    62    32    33 1   
    63    32    70 1   
    64    32    71 1   
    65    33    72 1   
    66    33    73 1   
    67    34    35 1   
    68    34    39 1   
    69    34    74 1   
    70    34    75 1   
    71    35    36 1   
    72    35    76 1   
    73    36    37 ar  
    74    36    40 ar  
    75    37    38 1   
    76    37    43 ar  
    77    38    39 1   
    78    38    44 2   
    79    39    77 1   
    80    40    41 ar  
    81    40    78 1   
    82    41    42 ar  
    83    41    79 1   
    84    42    43 ar  
    85    42    80 1   
    86    43    81 1   
@<TRIPOS>SUBSTRUCTURE
     1 L27         1 TEMP              0 ****  ****    0 ROOT
