@<TRIPOS>MOLECULE
L27
   81    86     1     0     0
SMALL
abcg2


@<TRIPOS>ATOM
      1 O01         16.4460    21.3240     4.4860 os         1 L27      -0.459100
      2 C02         15.4400    21.2990     5.3720 c          1 L27       0.639100
      3 O03         14.9490    20.2790     5.8090 o          1 L27      -0.542000
      4 NP4         15.0580    22.5510     5.6810 ns         1 L27      -0.493900
      5 C05         14.1430    22.8600     6.7550 c3         1 L27       0.128700
      6 C06         13.1410    23.9240     6.3080 c3         1 L27       0.171300
      7 O07         13.8750    25.0850     5.9860 oh         1 L27      -0.676000
      8 C08         12.2920    23.4220     5.1410 c3         1 L27      -0.098400
      9 C09         11.0840    24.2970     4.7950 c5         1 L27       0.095200
     10 C10         10.3580    23.7100     3.5660 c3         1 L27      -0.035100
     11 C11          9.0860    24.4150     3.1830 ca         1 L27      -0.090300
     12 C12          9.1080    25.5420     2.3650 ca         1 L27      -0.104500
     13 C13          7.9330    26.1940     2.0150 ca         1 L27      -0.108000
     14 C14          6.7100    25.7170     2.4690 ca         1 L27      -0.113000
     15 C15          6.6740    24.5890     3.2800 ca         1 L27      -0.108000
     16 C16          7.8530    23.9470     3.6340 ca         1 L27      -0.104500
     17 C17         10.1000    24.4040     5.9660 c          1 L27       0.584300
     18 O18          9.6250    23.4390     6.5420 o          1 L27      -0.535100
     19 N29         11.4480    25.6920     4.5780 nu         1 L27      -0.810200
     20 C30         10.6490    26.4870     5.3310 c2         1 L27       0.094000
     21 C35          9.8680    25.8030     6.2080 ce         1 L27      -0.328400
     22 C36         14.9000    23.2870     8.0260 c3         1 L27      -0.049100
     23 C37         15.8640    22.2280     8.4760 ca         1 L27      -0.084300
     24 C38         15.4360    21.1750     9.2810 ca         1 L27      -0.100500
     25 C39         16.3080    20.1640     9.6560 ca         1 L27      -0.108500
     26 C40         17.6290    20.1880     9.2250 ca         1 L27      -0.108000
     27 C41         18.0680    21.2320     8.4230 ca         1 L27      -0.108500
     28 C42         17.1920    22.2450     8.0560 ca         1 L27      -0.100500
     29 C44         16.9610    20.0720     4.0310 c5         1 L27       0.159300
     30 C45         18.2500    20.3600     3.2860 c5         1 L27       0.152600
     31 O46         17.8790    20.7220     1.9680 os         1 L27      -0.458000
     32 C47         16.5350    20.3270     1.7150 c5         1 L27       0.155600
     33 C48         16.1070    19.4890     2.9150 c5         1 L27      -0.139400
     34 C49          7.4570    26.2480     6.6430 c6         1 L27       0.115000
     35 C50          8.8770    26.3290     7.1970 c6         1 L27       0.053800
     36 C51          9.1600    27.7610     7.5680 ca         1 L27      -0.055300
     37 C52          8.5980    28.7840     6.8020 ca         1 L27      -0.155600
     38 C53          7.7450    28.4630     5.6200 c          1 L27       0.572600
     39 N54          7.2840    27.2050     5.5760 ns         1 L27      -0.500900
     40 C55          9.9970    28.0880     8.6280 ca         1 L27      -0.113000
     41 C56         10.2580    29.4150     8.9330 ca         1 L27      -0.089000
     42 C57          9.6940    30.4320     8.1710 ca         1 L27      -0.123000
     43 C58          8.8730    30.1150     7.1030 ca         1 L27      -0.057000
     44 O59          7.5060    29.2940     4.7510 o          1 L27      -0.576000
     45 H1          15.5720    23.3200     5.2800 hn         1 L27       0.333500
     46 H2          13.5790    21.9540     6.9830 h1         1 L27       0.086700
     47 H3          12.4830    24.1100     7.1720 h1         1 L27       0.047700
     48 H4          13.2940    25.6680     5.4790 ho         1 L27       0.462000
     49 H5          11.9120    22.4260     5.3810 hc         1 L27       0.072200
     50 H6          12.9190    23.3140     4.2510 hc         1 L27       0.072200
     51 H7          10.1500    22.6610     3.7840 hc         1 L27       0.064200
     52 H8          11.0610    23.7210     2.7280 hc         1 L27       0.064200
     53 H9          10.0530    25.9120     1.9820 ha         1 L27       0.113000
     54 H10          7.9720    27.0670     1.3760 ha         1 L27       0.119000
     55 H11          5.7910    26.2150     2.1880 ha         1 L27       0.119000
     56 H12          5.7250    24.2060     3.6330 ha         1 L27       0.119000
     57 H13          7.8120    23.0670     4.2660 ha         1 L27       0.113000
     58 H14         11.7650    26.0090     3.6740 hn         1 L27       0.495000
     59 H15         10.7110    27.5590     5.2010 h4         1 L27       0.221000
     60 H16         14.1650    23.4840     8.8110 hc         1 L27       0.060700
     61 H17         15.4300    24.2220     7.8380 hc         1 L27       0.060700
     62 H18         14.4050    21.1480     9.6170 ha         1 L27       0.110000
     63 H19         15.9580    19.3560    10.2860 ha         1 L27       0.110500
     64 H20         18.3120    19.4010     9.5170 ha         1 L27       0.110000
     65 H21         19.0960    21.2620     8.0850 ha         1 L27       0.110500
     66 H22         17.5470    23.0620     7.4380 ha         1 L27       0.110000
     67 H23         17.1120    19.3910     4.8700 h1         1 L27       0.084700
     68 H24         18.8690    19.4560     3.2860 h1         1 L27       0.057200
     69 H25         18.8320    21.1630     3.7430 h1         1 L27       0.057200
     70 H26         16.4840    19.7650     0.7800 h1         1 L27       0.046700
     71 H27         15.9020    21.2140     1.6060 h1         1 L27       0.046700
     72 H28         15.0360    19.5300     3.1090 hc         1 L27       0.070200
     73 H29         16.3800    18.4410     2.7770 hc         1 L27       0.070200
     74 H30          6.7390    26.4290     7.4500 h1         1 L27       0.054200
     75 H31          7.2560    25.2540     6.2460 h1         1 L27       0.054200
     76 H32          8.9180    25.7090     8.0960 hc         1 L27       0.080700
     77 H33          6.7710    26.9280     4.7520 hn         1 L27       0.325500
     78 H34         10.4420    27.2970     9.2200 ha         1 L27       0.119000
     79 H35         10.9010    29.6580     9.7700 ha         1 L27       0.116000
     80 H36          9.8970    31.4670     8.4100 ha         1 L27       0.119000
     81 H37          8.4390    30.9020     6.5000 ha         1 L27       0.137000
@<TRIPOS>BOND
     1     1     2 1   
     2     1    29 1   
     3     2     3 2   
     4     2     4 1   
     5     4     5 1   
     6     4    45 1   
     7     5     6 1   
     8     5    22 1   
     9     5    46 1   
    10     6     7 1   
    11     6     8 1   
    12     6    47 1   
    13     7    48 1   
    14     8     9 1   
    15     8    49 1   
    16     8    50 1   
    17     9    10 1   
    18     9    17 1   
    19     9    19 1   
    20    10    11 1   
    21    10    51 1   
    22    10    52 1   
    23    11    12 ar  
    24    11    16 ar  
    25    12    13 ar  
    26    12    53 1   
    27    13    14 ar  
    28    13    54 1   
    29    14    15 ar  
    30    14    55 1   
    31    15    16 ar  
    32    15    56 1   
    33    16    57 1   
    34    17    18 2   
    35    17    21 1   
    36    19    20 1   
    37    19    58 1   
    38    20    21 2   
    39    20    59 1   
    40    21    35 1   
    41    22    23 1   
    42    22    60 1   
    43    22    61 1   
    44    23    24 ar  
    45    23    28 ar  
    46    24    25 ar  
    47    24    62 1   
    48    25    26 ar  
    49    25    63 1   
    50    26    27 ar  
    51    26    64 1   
    52    27    28 ar  
    53    27    65 1   
    54    28    66 1   
    55    29    30 1   
    56    29    33 1   
    57    29    67 1   
    58    30    31 1   
    59    30    68 1   
    60    30    69 1   
    61    31    32 1   
    62    32    33 1   
    63    32    70 1   
    64    32    71 1   
    65    33    72 1   
    66    33    73 1   
    67    34    35 1   
    68    34    39 1   
    69    34    74 1   
    70    34    75 1   
    71    35    36 1   
    72    35    76 1   
    73    36    37 ar  
    74    36    40 ar  
    75    37    38 1   
    76    37    43 ar  
    77    38    39 1   
    78    38    44 2   
    79    39    77 1   
    80    40    41 ar  
    81    40    78 1   
    82    41    42 ar  
    83    41    79 1   
    84    42    43 ar  
    85    42    80 1   
    86    43    81 1   
@<TRIPOS>SUBSTRUCTURE
     1 L27         1 TEMP              0 ****  ****    0 ROOT
