@<TRIPOS>MOLECULE
L28
   55    56     1     0     0
SMALL
No Charge or Current Charge


@<TRIPOS>ATOM
      1 C15          2.2250    -3.1270     1.0860 ca         1 L28      -0.202000
      2 C14          3.2930    -2.3900     0.5540 ca         1 L28       0.003000
      3 C12          1.7210    -0.6940    -0.2310 ca         1 L28      -0.009000
      4 C4          -5.0250     0.6630    -0.1460 cc         1 L28      -0.239600
      5 C3          -3.7080     1.0760    -0.5350 cc         1 L28       0.007700
      6 C11          0.6420    -1.4330     0.3100 ca         1 L28      -0.065000
      7 C16          0.9100    -2.6540     0.9660 ca         1 L28       0.133100
      8 C13          3.0430    -1.1710    -0.1030 ca         1 L28      -0.305500
      9 C7          -2.8150     0.1020    -0.1250 cd         1 L28      -0.271600
     10 C5          -4.9310    -0.5720     0.4690 cd         1 L28      -0.102300
     11 C8          -1.3230     0.1340    -0.2750 c          1 L28       0.651700
     12 C26         -5.9650    -1.4900     1.0810 c3         1 L28      -0.040800
     13 C23          6.5370     2.4520     0.0420 c3         1 L28      -0.108100
     14 C25          3.4930     1.9630     1.5920 c3         1 L28      -0.108100
     15 C2          -3.3940     2.3690    -1.2670 c3         1 L28      -0.023100
     16 N6          -3.5810    -0.9110     0.4740 na         1 L28      -0.093000
     17 N10         -0.7180    -1.0110     0.2260 ns         1 L28      -0.152000
     18 N21          5.2280     0.3160     0.6280 n3         1 L28      -0.798500
     19 O28         -6.3540     2.5540    -0.8680 o          1 L28      -0.603100
     20 O9          -0.7000     1.0640    -0.7700 o          1 L28      -0.566100
     21 O19          5.3340    -1.2030    -1.3920 o          1 L28      -0.539500
     22 O20          3.9310     0.9470    -1.4980 o          1 L28      -0.539500
     23 O17         -0.1140    -3.3890     1.4930 oh         1 L28      -0.554100
     24 S18          4.4270    -0.2290    -0.7760 sy         1 L28       1.195600
     25 N1          -7.4380     0.8810     0.0460 nt         1 L28      -0.610000
     26 H1           2.4290    -4.0670     1.5930 ha         1 L28       0.118000
     27 H2           4.3120    -2.7620     0.6580 ha         1 L28       0.135000
     28 H3           1.5480     0.2440    -0.7510 ha         1 L28       0.175000
     29 H4          -5.5020    -2.3940     1.4950 hc         1 L28       0.053700
     30 H5          -6.4990    -0.9990     1.9030 hc         1 L28       0.053700
     31 H6          -6.6980    -1.8200     0.3340 hc         1 L28       0.053700
     32 H7          -2.3100     3.3540     0.3510 hc         1 L28       0.034367
     33 H8          -2.9400     4.4680    -0.8830 hc         1 L28       0.034367
     34 H9          -4.0440     3.7410     0.3060 hc         1 L28       0.034367
     35 H10          6.2250     3.0760     0.8850 hc         1 L28       0.046867
     36 H11          7.5480     2.7660    -0.2410 hc         1 L28       0.046867
     37 H12          5.8750     2.6410    -0.8100 hc         1 L28       0.046867
     38 H13          2.7240     1.7640     0.8400 hc         1 L28       0.046867
     39 H14          2.9820     2.1980     2.5320 hc         1 L28       0.046867
     40 H15          4.0510     2.8520     1.2860 hc         1 L28       0.046867
     41 H16         -2.5160     2.2480    -1.9070 hc         1 L28       0.068700
     42 H17         -4.1880     2.6200    -1.9770 hc         1 L28       0.068700
     43 H18          7.1140     0.4160    -0.3330 h1         1 L28       0.044450
     44 H19          7.1320     0.8690     1.3590 h1         1 L28       0.044450
     45 H20          5.0860     0.9660     2.6340 h1         1 L28       0.044450
     46 H21          3.7910    -0.0960     2.1370 h1         1 L28       0.044450
     47 H22         -3.2180    -1.7710     0.8750 hn         1 L28       0.349000
     48 H23         -1.3600    -1.6850     0.6150 hn         1 L28       0.160000
     49 H24          0.2640    -4.1960     1.9040 ho         1 L28       0.479000
     50 H25         -7.4250    -0.0320     0.4680 hn         1 L28       0.308000
     51 H26         -8.3050     1.3810    -0.0810 hn         1 L28       0.308000
     52 C27         -6.2870     1.4490    -0.3610 c          1 L28       0.645700
     53 C22          6.5480     0.9620     0.4340 c3         1 L28       0.239800
     54 C1          -3.1590     3.5570    -0.3140 c3         1 L28      -0.079100
     55 C24          4.4150     0.7390     1.7950 c3         1 L28       0.239800
@<TRIPOS>BOND
     1     1     2 ar  
     2     1     7 ar  
     3     1    26 1   
     4     2     8 ar  
     5     2    27 1   
     6     3     6 ar  
     7     3     8 ar  
     8     3    28 1   
     9     4     5 1   
    10     4    10 2   
    11     4    52 1   
    12     5     9 2   
    13     5    15 1   
    14     6     7 ar  
    15     6    17 1   
    16     7    23 1   
    17     8    24 1   
    18     9    11 1   
    19     9    16 1   
    20    10    12 1   
    21    10    16 1   
    22    11    17 1   
    23    11    20 2   
    24    12    29 1   
    25    12    30 1   
    26    12    31 1   
    27    13    35 1   
    28    13    36 1   
    29    13    37 1   
    30    13    53 1   
    31    14    38 1   
    32    14    39 1   
    33    14    40 1   
    34    14    55 1   
    35    15    41 1   
    36    15    42 1   
    37    15    54 1   
    38    16    47 1   
    39    17    48 1   
    40    18    24 1   
    41    18    53 1   
    42    18    55 1   
    43    19    52 2   
    44    21    24 2   
    45    22    24 2   
    46    23    49 1   
    47    25    50 1   
    48    25    51 1   
    49    25    52 1   
    50    32    54 1   
    51    33    54 1   
    52    34    54 1   
    53    43    53 1   
    54    44    53 1   
    55    45    55 1   
    56    46    55 1   
@<TRIPOS>SUBSTRUCTURE
     1 L28         1 TEMP              0 ****  ****    0 ROOT
