@<TRIPOS>MOLECULE
L28
   55    56     1     0     0
SMALL
abcg2


@<TRIPOS>ATOM
      1 C15          2.3180    -3.0610     0.4130 ca         1 L28      -0.202000
      2 C14          3.2970    -2.1570     0.0380 ca         1 L28       0.003000
      3 C12          1.5790    -0.5050    -0.3960 ca         1 L28      -0.009000
      4 C4          -5.0680     0.3960    -0.0130 cc         1 L28      -0.239600
      5 C3          -3.8060     0.8940    -0.4440 cc         1 L28       0.007700
      6 C11          0.5950    -1.4060    -0.0120 ca         1 L28      -0.065000
      7 C16          0.9800    -2.6980     0.3970 ca         1 L28       0.133100
      8 C13          2.9170    -0.8840    -0.3580 ca         1 L28      -0.305500
      9 C7          -2.8560     0.0170     0.0410 cd         1 L28      -0.271600
     10 C5          -4.8430    -0.7670     0.7140 cd         1 L28      -0.102300
     11 C8          -1.4000     0.0690    -0.1010 c          1 L28       0.651700
     12 C26         -5.7680    -1.7090     1.4020 c3         1 L28      -0.040800
     13 C23          7.1970     0.9430     0.8400 c3         1 L28      -0.108100
     14 C25          4.4020     3.4050     0.9110 c3         1 L28      -0.108100
     15 C2          -3.5540     2.1490    -1.2190 c3         1 L28      -0.023100
     16 N6          -3.5160    -0.9820     0.7190 na         1 L28      -0.093000
     17 N10         -0.7750    -1.1420    -0.0220 ns         1 L28      -0.152000
     18 N21          4.7130     0.9560     0.5720 n3         1 L28      -0.798500
     19 O28         -6.6040     1.5620    -1.3890 o          1 L28      -0.603100
     20 O9          -0.8050     1.1210    -0.2740 o          1 L28      -0.566100
     21 O19          5.2630    -0.4540    -1.4040 o          1 L28      -0.539500
     22 O20          3.5060     1.3380    -1.5810 o          1 L28      -0.539500
     23 O17         -0.0110    -3.5320     0.7490 oh         1 L28      -0.554100
     24 S18          4.1620     0.2900    -0.8120 sy         1 L28       1.195600
     25 N1          -7.3320     0.8470     0.6160 nt         1 L28      -0.610000
     26 H1           2.6000    -4.0590     0.7220 ha         1 L28       0.118000
     27 H2           4.3330    -2.4640     0.0480 ha         1 L28       0.135000
     28 H3           1.3020     0.4760    -0.7420 ha         1 L28       0.175000
     29 H4          -5.2900    -2.6760     1.5540 hc         1 L28       0.053700
     30 H5          -6.0660    -1.3380     2.3840 hc         1 L28       0.053700
     31 H6          -6.6740    -1.8710     0.8220 hc         1 L28       0.053700
     32 H7          -2.7140     3.2980     0.4180 hc         1 L28       0.034367
     33 H8          -3.3600     4.2860    -0.8940 hc         1 L28       0.034367
     34 H9          -4.4570     3.4940     0.2340 hc         1 L28       0.034367
     35 H10          7.2390     2.0180     1.0110 hc         1 L28       0.046867
     36 H11          7.9990     0.4810     1.4170 hc         1 L28       0.046867
     37 H12          7.3870     0.7560    -0.2150 hc         1 L28       0.046867
     38 H13          4.3340     3.6090    -0.1570 hc         1 L28       0.046867
     39 H14          3.7860     4.1360     1.4370 hc         1 L28       0.046867
     40 H15          5.4350     3.5560     1.2240 hc         1 L28       0.046867
     41 H16         -2.6090     2.0720    -1.7550 hc         1 L28       0.068700
     42 H17         -4.3330     2.2750    -1.9690 hc         1 L28       0.068700
     43 H18          5.8600    -0.7170     1.1400 h1         1 L28       0.044450
     44 H19          5.6980     0.5390     2.3310 h1         1 L28       0.044450
     45 H20          3.9640     1.8120     2.2980 h1         1 L28       0.044450
     46 H21          2.8720     1.8960     0.9480 h1         1 L28       0.044450
     47 H22         -3.0860    -1.7320     1.2370 hn         1 L28       0.349000
     48 H23         -1.3580    -1.9640    -0.0270 hn         1 L28       0.160000
     49 H24          0.3310    -4.3980     1.0010 ho         1 L28       0.479000
     50 H25         -7.1140     0.5670     1.5570 hn         1 L28       0.308000
     51 H26         -8.2370     1.2640     0.4680 hn         1 L28       0.308000
     52 C27         -6.3820     0.9860    -0.3300 c          1 L28       0.645700
     53 C22          5.8570     0.3670     1.2660 c3         1 L28       0.239800
     54 C1          -3.5190     3.3770    -0.3110 c3         1 L28      -0.079100
     55 C24          3.9230     1.9990     1.2240 c3         1 L28       0.239800
@<TRIPOS>BOND
     1     1     2 ar  
     2     1     7 ar  
     3     1    26 1   
     4     2     8 ar  
     5     2    27 1   
     6     3     6 ar  
     7     3     8 ar  
     8     3    28 1   
     9     4     5 1   
    10     4    10 2   
    11     4    52 1   
    12     5     9 2   
    13     5    15 1   
    14     6     7 ar  
    15     6    17 1   
    16     7    23 1   
    17     8    24 1   
    18     9    11 1   
    19     9    16 1   
    20    10    12 1   
    21    10    16 1   
    22    11    17 1   
    23    11    20 2   
    24    12    29 1   
    25    12    30 1   
    26    12    31 1   
    27    13    35 1   
    28    13    36 1   
    29    13    37 1   
    30    13    53 1   
    31    14    38 1   
    32    14    39 1   
    33    14    40 1   
    34    14    55 1   
    35    15    41 1   
    36    15    42 1   
    37    15    54 1   
    38    16    47 1   
    39    17    48 1   
    40    18    24 1   
    41    18    53 1   
    42    18    55 1   
    43    19    52 2   
    44    21    24 2   
    45    22    24 2   
    46    23    49 1   
    47    25    50 1   
    48    25    51 1   
    49    25    52 1   
    50    32    54 1   
    51    33    54 1   
    52    34    54 1   
    53    43    53 1   
    54    44    53 1   
    55    45    55 1   
    56    46    55 1   
@<TRIPOS>SUBSTRUCTURE
     1 L28         1 TEMP              0 ****  ****    0 ROOT
