@<TRIPOS>MOLECULE
L29
  116   120     1     0     0
SMALL
abcg2


@<TRIPOS>ATOM
      1 O15          4.3350    -4.5850    27.6650 o          1 L29      -0.544250
      2 S13          4.5860    -6.0060    27.6170 sy         1 L29       1.169100
      3 O14          3.7220    -6.9030    28.3440 o          1 L29      -0.544250
      4 C10          6.2520    -6.2670    28.1960 ca         1 L29      -0.312500
      5 C11          7.1680    -5.2210    28.1170 ca         1 L29      -0.011000
      6 C12          8.4300    -5.3860    28.6680 ca         1 L29      -0.119000
      7 C7           8.7990    -6.5880    29.2780 cp         1 L29       0.029500
      8 C1          10.1390    -6.7550    29.8890 cp         1 L29      -0.058000
      9 C2          10.9040    -7.8910    29.6290 ca         1 L29      -0.090500
     10 C3          12.1530    -8.0490    30.2300 ca         1 L29      -0.111000
     11 C4          12.6620    -7.0550    31.0530 ca         1 L29      -0.100500
     12 C5          11.8910    -5.9260    31.3380 ca         1 L29      -0.111000
     13 C6          10.6570    -5.7600    30.7300 ca         1 L29      -0.090500
     14 C8           7.8540    -7.6150    29.3700 ca         1 L29      -0.119000
     15 C9           6.5770    -7.4470    28.8590 ca         1 L29      -0.011000
     16 N16          4.5360    -6.4600    26.0370 n3         1 L29      -0.714500
     17 C17          4.9670    -5.4840    25.0370 c3         1 L29       0.155500
     18 C18          4.0980    -5.5910    23.7390 c3         1 L29      -0.051700
     19 C19          4.6450    -4.8890    22.5070 c3         1 L29      -0.085350
     20 C20          2.6130    -5.4230    24.0010 c3         1 L29      -0.085350
     21 C21          6.4530    -5.5520    24.7090 c          1 L29       0.552100
     22 N22          7.0880    -4.3810    24.7640 ns         1 L29      -0.378400
     23 O22          8.4370    -4.3290    24.4530 oh         1 L29      -0.437100
     24 O23          7.0420    -6.5600    24.2960 o          1 L29      -0.611600
     25 C24          4.7560    -7.9150    25.7730 c3         1 L29       0.172800
     26 C25          3.4180    -8.6220    25.5440 c3         1 L29       0.097000
     27 N26          3.6440   -10.0180    25.1740 ns         1 L29      -0.504900
     28 C27          3.9280   -10.3650    23.9040 c          1 L29       0.603700
     29 O28          4.0640    -9.5150    23.0170 o          1 L29      -0.602600
     30 C29          4.0610   -11.8310    23.5880 ca         1 L29      -0.154100
     31 C30          3.9810   -12.1960    22.2440 ca         1 L29      -0.036000
     32 C31          4.0310   -13.5350    21.8790 ca         1 L29      -0.130000
     33 C32          4.1330   -14.5190    22.8490 ca         1 L29      -0.036000
     34 C34          4.1140   -12.8280    24.5640 ca         1 L29      -0.063000
     35 C33          4.2280   -14.1700    24.1980 ca         1 L29      -0.154100
     36 C35          4.2950   -15.3080    25.1860 c          1 L29       0.603700
     37 O36          4.1630   -16.4730    24.8050 o          1 L29      -0.602600
     38 N37          4.5590   -15.0140    26.4770 ns         1 L29      -0.504900
     39 C38          4.4890   -16.0240    27.5110 c3         1 L29       0.097000
     40 C39          3.0470   -16.4100    27.8490 c3         1 L29       0.172800
     41 N40          2.9980   -17.5270    28.8250 n3         1 L29      -0.714500
     42 C56          2.1270   -18.6760    28.4870 c3         1 L29       0.155500
     43 C57          2.8030   -19.8080    27.6460 c3         1 L29      -0.051700
     44 C58          4.3130   -19.6480    27.4410 c3         1 L29      -0.085350
     45 C59          2.0830   -20.2190    26.3580 c3         1 L29      -0.085350
     46 C60          0.7290   -18.2950    27.9980 c          1 L29       0.552100
     47 N61         -0.2520   -18.9850    28.5860 ns         1 L29      -0.378400
     48 O61         -1.5510   -18.7960    28.1550 oh         1 L29      -0.437100
     49 O62          0.4590   -17.5280    27.0650 o          1 L29      -0.611600
     50 S41          2.9110   -17.0390    30.4220 sy         1 L29       1.169100
     51 O43          2.7030   -18.2160    31.2290 o          1 L29      -0.544250
     52 O42          4.0920   -16.2400    30.6500 o          1 L29      -0.544250
     53 C45          1.5090   -15.9680    30.6110 ca         1 L29      -0.312500
     54 C46          1.6600   -14.5920    30.4410 ca         1 L29      -0.011000
     55 C47          0.6040   -13.7470    30.7340 ca         1 L29      -0.119000
     56 C48         -0.5920   -14.2500    31.2570 cp         1 L29       0.029500
     57 C49         -0.7030   -15.6270    31.4850 ca         1 L29      -0.119000
     58 C5A          0.3500   -16.4800    31.1900 ca         1 L29      -0.011000
     59 C50         -1.7240   -13.3440    31.5460 cp         1 L29      -0.058000
     60 C51         -2.0600   -12.3090    30.6680 ca         1 L29      -0.090500
     61 C52         -3.0860   -11.4210    30.9780 ca         1 L29      -0.111000
     62 C53         -3.8610   -11.6290    32.1150 ca         1 L29      -0.100500
     63 C54         -3.5480   -12.6680    32.9890 ca         1 L29      -0.111000
     64 C55         -2.4950   -13.5260    32.7010 ca         1 L29      -0.090500
     65 H1           6.8470    -4.2640    27.7340 ha         1 L29       0.128500
     66 H2           9.1290    -4.5620    28.6150 ha         1 L29       0.124750
     67 H3          10.5360    -8.7040    29.0140 ha         1 L29       0.116750
     68 H4          12.7410    -8.9290    30.0020 ha         1 L29       0.117000
     69 H5          13.6570    -7.1370    31.4730 ha         1 L29       0.115500
     70 H6          12.3010    -5.1770    32.0030 ha         1 L29       0.117000
     71 H7          10.0190    -4.9260    30.9940 ha         1 L29       0.116750
     72 H8           8.1330    -8.5660    29.8120 ha         1 L29       0.124750
     73 H9           5.8550    -8.2480    28.9300 ha         1 L29       0.128500
     74 H10          4.7690    -4.4870    25.4310 h1         1 L29       0.077700
     75 H11          4.2250    -6.6640    23.5260 hc         1 L29       0.054200
     76 H12          5.7180    -5.0210    22.3770 hc         1 L29       0.043617
     77 H13          4.1500    -5.2920    21.6200 hc         1 L29       0.043617
     78 H14          4.4120    -3.8190    22.5090 hc         1 L29       0.043617
     79 H15          2.3020    -5.9550    24.8980 hc         1 L29       0.043617
     80 H16          2.3450    -4.3760    24.1820 hc         1 L29       0.043617
     81 H17          2.0240    -5.7850    23.1580 hc         1 L29       0.043617
     82 H18          6.6770    -3.4790    24.9590 hn         1 L29       0.368000
     83 H19          8.5990    -5.2180    24.0760 ho         1 L29       0.479500
     84 H20          5.2170    -8.3480    26.6570 h1         1 L29       0.077700
     85 H21          5.3980    -7.9860    24.9050 h1         1 L29       0.077700
     86 H22          2.8190    -8.1460    24.7760 h1         1 L29       0.071950
     87 H23          2.8990    -8.6690    26.4990 h1         1 L29       0.071950
     88 H24          3.4340   -10.7270    25.8550 hn         1 L29       0.315500
     89 H25          3.9310   -11.4510    21.4640 ha         1 L29       0.144000
     90 H26          4.0120   -13.8010    20.8300 ha         1 L29       0.126000
     91 H27          4.0660   -15.5670    22.5830 ha         1 L29       0.144000
     92 H28          4.1890   -12.5530    25.6060 ha         1 L29       0.099000
     93 H29          4.6540   -14.0480    26.7390 hn         1 L29       0.315500
     94 H30          5.1370   -16.8710    27.2990 h1         1 L29       0.071950
     95 H31          4.9350   -15.5860    28.4060 h1         1 L29       0.071950
     96 H32          2.4990   -15.5300    28.1760 h1         1 L29       0.077700
     97 H33          2.5880   -16.8020    26.9480 h1         1 L29       0.077700
     98 H34          1.9230   -19.1310    29.4530 h1         1 L29       0.077700
     99 H35          2.7470   -20.6890    28.2940 hc         1 L29       0.054200
    100 H36          4.7780   -19.3100    28.3670 hc         1 L29       0.043617
    101 H37          4.7420   -20.6120    27.1710 hc         1 L29       0.043617
    102 H38          4.5490   -18.9000    26.6820 hc         1 L29       0.043617
    103 H39          1.0100   -20.3420    26.4950 hc         1 L29       0.043617
    104 H40          2.2510   -19.4710    25.5750 hc         1 L29       0.043617
    105 H41          2.5510   -21.1270    25.9740 hc         1 L29       0.043617
    106 H42         -0.1300   -19.6080    29.3690 hn         1 L29       0.368000
    107 H43         -1.4240   -18.1430    27.4320 ho         1 L29       0.479500
    108 H44          2.6010   -14.1990    30.0830 ha         1 L29       0.128500
    109 H45          0.7150   -12.6830    30.5740 ha         1 L29       0.124750
    110 H46         -1.6680   -16.0360    31.7510 ha         1 L29       0.124750
    111 H47          0.2380   -17.5450    31.3290 ha         1 L29       0.128500
    112 H48         -1.4820   -12.1540    29.7650 ha         1 L29       0.116750
    113 H49         -3.3920   -10.6750    30.2560 ha         1 L29       0.117000
    114 H50         -4.6890   -10.9690    32.3440 ha         1 L29       0.115500
    115 H51         -4.1100   -12.7770    33.9080 ha         1 L29       0.117000
    116 H52         -2.1820   -14.2610    33.4330 ha         1 L29       0.116750
@<TRIPOS>BOND
     1     1     2 2   
     2     2     3 2   
     3     2     4 1   
     4     2    16 1   
     5     4     5 ar  
     6     4    15 ar  
     7     5     6 ar  
     8     5    65 1   
     9     6     7 ar  
    10     6    66 1   
    11     7     8 1   
    12     7    14 ar  
    13     8     9 ar  
    14     8    13 ar  
    15     9    10 ar  
    16     9    67 1   
    17    10    11 ar  
    18    10    68 1   
    19    11    12 ar  
    20    11    69 1   
    21    12    13 ar  
    22    12    70 1   
    23    13    71 1   
    24    14    15 ar  
    25    14    72 1   
    26    15    73 1   
    27    16    17 1   
    28    16    25 1   
    29    17    18 1   
    30    17    21 1   
    31    17    74 1   
    32    18    19 1   
    33    18    20 1   
    34    18    75 1   
    35    19    76 1   
    36    19    77 1   
    37    19    78 1   
    38    20    79 1   
    39    20    80 1   
    40    20    81 1   
    41    21    22 1   
    42    21    24 2   
    43    22    23 1   
    44    22    82 1   
    45    23    83 1   
    46    25    26 1   
    47    25    84 1   
    48    25    85 1   
    49    26    27 1   
    50    26    86 1   
    51    26    87 1   
    52    27    28 1   
    53    27    88 1   
    54    28    29 2   
    55    28    30 1   
    56    30    31 ar  
    57    30    34 ar  
    58    31    32 ar  
    59    31    89 1   
    60    32    33 ar  
    61    32    90 1   
    62    33    35 ar  
    63    33    91 1   
    64    34    35 ar  
    65    34    92 1   
    66    35    36 1   
    67    36    37 2   
    68    36    38 1   
    69    38    39 1   
    70    38    93 1   
    71    39    40 1   
    72    39    94 1   
    73    39    95 1   
    74    40    41 1   
    75    40    96 1   
    76    40    97 1   
    77    41    42 1   
    78    41    50 1   
    79    42    43 1   
    80    42    46 1   
    81    42    98 1   
    82    43    44 1   
    83    43    45 1   
    84    43    99 1   
    85    44   100 1   
    86    44   101 1   
    87    44   102 1   
    88    45   103 1   
    89    45   104 1   
    90    45   105 1   
    91    46    47 1   
    92    46    49 2   
    93    47    48 1   
    94    47   106 1   
    95    48   107 1   
    96    50    51 2   
    97    50    52 2   
    98    50    53 1   
    99    53    54 ar  
   100    53    58 ar  
   101    54    55 ar  
   102    54   108 1   
   103    55    56 ar  
   104    55   109 1   
   105    56    57 ar  
   106    56    59 1   
   107    57    58 ar  
   108    57   110 1   
   109    58   111 1   
   110    59    60 ar  
   111    59    64 ar  
   112    60    61 ar  
   113    60   112 1   
   114    61    62 ar  
   115    61   113 1   
   116    62    63 ar  
   117    62   114 1   
   118    63    64 ar  
   119    63   115 1   
   120    64   116 1   
@<TRIPOS>SUBSTRUCTURE
     1 L29         1 TEMP              0 ****  ****    0 ROOT
