@<TRIPOS>MOLECULE
L29
  116   120     1     0     0
SMALL
No Charge or Current Charge


@<TRIPOS>ATOM
      1 O15          5.6350    -4.8570    27.7610 o          1 L29      -0.544250
      2 S13          4.4930    -5.7780    27.7940 sy         1 L29       1.169100
      3 O14          3.3090    -5.4990    28.6130 o          1 L29      -0.544250
      4 C10          5.1760    -7.3990    28.2090 ca         1 L29      -0.312500
      5 C11          6.3650    -7.8440    27.5990 ca         1 L29      -0.011000
      6 C12          6.9140    -9.0890    27.9480 ca         1 L29      -0.119000
      7 C7           6.3110    -9.9150    28.9300 cp         1 L29       0.029500
      8 C1           6.9160   -11.2320    29.3240 cp         1 L29      -0.058000
      9 C2           6.1080   -12.3130    29.7630 ca         1 L29      -0.090500
     10 C3           6.6770   -13.5390    30.1510 ca         1 L29      -0.111000
     11 C4           8.0670   -13.7170    30.1000 ca         1 L29      -0.100500
     12 C5           8.8890   -12.6650    29.6660 ca         1 L29      -0.111000
     13 C6           8.3210   -11.4370    29.2850 ca         1 L29      -0.090500
     14 C8           5.1260    -9.4380    29.5450 ca         1 L29      -0.119000
     15 C9           4.5640    -8.1990    29.1940 ca         1 L29      -0.011000
     16 N16          3.9480    -5.9220    26.1670 n3         1 L29      -0.714500
     17 C17          4.5380    -4.9510    25.1800 c3         1 L29       0.155500
     18 C18          3.5650    -4.5730    24.0100 c3         1 L29      -0.051700
     19 C19          4.1230    -3.4210    23.1330 c3         1 L29      -0.085350
     20 C20          2.1450    -4.2120    24.5160 c3         1 L29      -0.085350
     21 C21          5.9590    -5.3440    24.6410 c          1 L29       0.552100
     22 N22          7.0370    -4.7060    25.2380 ns         1 L29      -0.378400
     23 O22          8.3840    -5.1280    24.9260 oh         1 L29      -0.437100
     24 O23          6.1480    -6.1590    23.7430 o          1 L29      -0.611600
     25 C24          3.6890    -7.2900    25.6370 c3         1 L29       0.172800
     26 C25          2.5060    -8.0320    26.3050 c3         1 L29       0.097000
     27 N26          2.3750    -9.4150    25.8310 ns         1 L29      -0.504900
     28 C27          1.9210    -9.7780    24.5810 c          1 L29       0.603700
     29 O28          1.4800    -8.9440    23.8030 o          1 L29      -0.602600
     30 C29          2.0270   -11.2450    24.2200 ca         1 L29      -0.154100
     31 C30          1.5600   -11.6800    22.9600 ca         1 L29      -0.036000
     32 C31          1.6890   -13.0230    22.5760 ca         1 L29      -0.130000
     33 C32          2.2880   -13.9530    23.4390 ca         1 L29      -0.036000
     34 C34          2.6160   -12.1950    25.0920 ca         1 L29      -0.063000
     35 C33          2.7540   -13.5520    24.7090 ca         1 L29      -0.154100
     36 C35          3.4210   -14.5710    25.6080 c          1 L29       0.603700
     37 O36          3.7930   -15.6590    25.1930 o          1 L29      -0.602600
     38 N37          3.6180   -14.1890    26.9190 ns         1 L29      -0.504900
     39 C38          4.3350   -14.9640    27.9420 c3         1 L29       0.097000
     40 C39          3.7860   -16.3960    28.1730 c3         1 L29       0.172800
     41 N40          4.1620   -17.0010    29.4800 n3         1 L29      -0.714500
     42 C56          4.7720   -18.4090    29.3850 c3         1 L29       0.155500
     43 C57          6.3050   -18.4430    29.0480 c3         1 L29      -0.051700
     44 C58          7.1410   -17.7610    30.1590 c3         1 L29      -0.085350
     45 C59          6.7150   -17.8970    27.6560 c3         1 L29      -0.085350
     46 C60          3.9250   -19.4800    28.6000 c          1 L29       0.552100
     47 N61          2.7680   -19.9140    29.2340 ns         1 L29      -0.378400
     48 O61          1.8360   -20.7740    28.5330 oh         1 L29      -0.437100
     49 O62          4.2360   -19.9570    27.5130 o          1 L29      -0.611600
     50 S41          3.1510   -16.6210    30.8570 sy         1 L29       1.169100
     51 O43          2.1330   -17.6760    30.8980 o          1 L29      -0.544250
     52 O42          4.0690   -16.3720    31.9730 o          1 L29      -0.544250
     53 C45          2.3360   -15.0620    30.4430 ca         1 L29      -0.312500
     54 C46          2.8390   -13.8430    30.9440 ca         1 L29      -0.011000
     55 C47          2.1920   -12.6340    30.6380 ca         1 L29      -0.119000
     56 C48          1.0260   -12.6030    29.8330 cp         1 L29       0.029500
     57 C49          0.5260   -13.8410    29.3550 ca         1 L29      -0.119000
     58 C5A          1.1600   -15.0550    29.6650 ca         1 L29      -0.011000
     59 C50          0.3320   -11.3100    29.5200 cp         1 L29      -0.058000
     60 C51          1.0580   -10.0970    29.3870 ca         1 L29      -0.090500
     61 C52          0.4030    -8.8820    29.1200 ca         1 L29      -0.111000
     62 C53         -0.9920    -8.8540    28.9660 ca         1 L29      -0.100500
     63 C54         -1.7320   -10.0400    29.0890 ca         1 L29      -0.111000
     64 C55         -1.0780   -11.2530    29.3660 ca         1 L29      -0.090500
     65 H1           6.8650    -7.2320    26.8510 ha         1 L29       0.128500
     66 H2           7.8200    -9.4160    27.4450 ha         1 L29       0.124750
     67 H3           5.0280   -12.2030    29.7950 ha         1 L29       0.116750
     68 H4           6.0410   -14.3530    30.4920 ha         1 L29       0.117000
     69 H5           8.5080   -14.6650    30.3990 ha         1 L29       0.115500
     70 H6           9.9680   -12.7980    29.6310 ha         1 L29       0.117000
     71 H7           8.9820   -10.6320    28.9740 ha         1 L29       0.116750
     72 H8           4.6470   -10.0230    30.3260 ha         1 L29       0.124750
     73 H9           3.6630    -7.8620    29.7040 ha         1 L29       0.128500
     74 H10          4.6840    -3.9930    25.6980 h1         1 L29       0.077700
     75 H11          3.4610    -5.4430    23.3510 hc         1 L29       0.054200
     76 H12          5.0780    -3.6960    22.6690 hc         1 L29       0.043617
     77 H13          3.4240    -3.1780    22.3240 hc         1 L29       0.043617
     78 H14          4.2800    -2.5150    23.7310 hc         1 L29       0.043617
     79 H15          1.6760    -5.0620    25.0250 hc         1 L29       0.043617
     80 H16          2.1830    -3.3700    25.2180 hc         1 L29       0.043617
     81 H17          1.4940    -3.9300    23.6790 hc         1 L29       0.043617
     82 H18          6.8970    -4.2640    26.1500 hn         1 L29       0.368000
     83 H19          8.2330    -5.9500    24.3970 ho         1 L29       0.479500
     84 H20          4.5880    -7.9140    25.7060 h1         1 L29       0.077700
     85 H21          3.4530    -7.2420    24.5680 h1         1 L29       0.077700
     86 H22          1.5750    -7.4870    26.0980 h1         1 L29       0.071950
     87 H23          2.6400    -8.0560    27.3900 h1         1 L29       0.071950
     88 H24          2.7060   -10.1590    26.4300 hn         1 L29       0.315500
     89 H25          1.1050   -10.9730    22.2670 ha         1 L29       0.144000
     90 H26          1.3310   -13.3430    21.5990 ha         1 L29       0.126000
     91 H27          2.3880   -14.9880    23.1170 ha         1 L29       0.144000
     92 H28          2.9990   -11.8730    26.0540 ha         1 L29       0.099000
     93 H29          3.2400   -13.2900    27.1870 hn         1 L29       0.315500
     94 H30          5.3940   -15.0170    27.6640 h1         1 L29       0.071950
     95 H31          4.2850   -14.4000    28.8760 h1         1 L29       0.071950
     96 H32          2.6960   -16.3920    28.0520 h1         1 L29       0.077700
     97 H33          4.1590   -17.0140    27.3470 h1         1 L29       0.077700
     98 H34          4.7460   -18.8140    30.4060 h1         1 L29       0.077700
     99 H35          6.5950   -19.5020    29.0580 hc         1 L29       0.054200
    100 H36          6.9340   -18.2120    31.1380 hc         1 L29       0.043617
    101 H37          8.2150   -17.8660    29.9600 hc         1 L29       0.043617
    102 H38          6.9090   -16.6910    30.2210 hc         1 L29       0.043617
    103 H39          6.1050   -18.3200    26.8510 hc         1 L29       0.043617
    104 H40          6.6330   -16.8070    27.6180 hc         1 L29       0.043617
    105 H41          7.7610   -18.1520    27.4430 hc         1 L29       0.043617
    106 H42          2.3800   -19.3440    29.9930 hn         1 L29       0.368000
    107 H43          2.1830   -20.7520    27.6060 ho         1 L29       0.479500
    108 H44          3.7280   -13.8250    31.5720 ha         1 L29       0.128500
    109 H45          2.5920   -11.7120    31.0510 ha         1 L29       0.124750
    110 H46         -0.3630   -13.8640    28.7310 ha         1 L29       0.124750
    111 H47          0.7370   -15.9870    29.2920 ha         1 L29       0.128500
    112 H48          2.1410   -10.0970    29.4860 ha         1 L29       0.116750
    113 H49          0.9750    -7.9610    29.0340 ha         1 L29       0.117000
    114 H50         -1.4980    -7.9140    28.7590 ha         1 L29       0.115500
    115 H51         -2.8140   -10.0200    28.9780 ha         1 L29       0.117000
    116 H52         -1.6780   -12.1530    29.4790 ha         1 L29       0.116750
@<TRIPOS>BOND
     1     1     2 2   
     2     2     3 2   
     3     2     4 1   
     4     2    16 1   
     5     4     5 ar  
     6     4    15 ar  
     7     5     6 ar  
     8     5    65 1   
     9     6     7 ar  
    10     6    66 1   
    11     7     8 1   
    12     7    14 ar  
    13     8     9 ar  
    14     8    13 ar  
    15     9    10 ar  
    16     9    67 1   
    17    10    11 ar  
    18    10    68 1   
    19    11    12 ar  
    20    11    69 1   
    21    12    13 ar  
    22    12    70 1   
    23    13    71 1   
    24    14    15 ar  
    25    14    72 1   
    26    15    73 1   
    27    16    17 1   
    28    16    25 1   
    29    17    18 1   
    30    17    21 1   
    31    17    74 1   
    32    18    19 1   
    33    18    20 1   
    34    18    75 1   
    35    19    76 1   
    36    19    77 1   
    37    19    78 1   
    38    20    79 1   
    39    20    80 1   
    40    20    81 1   
    41    21    22 1   
    42    21    24 2   
    43    22    23 1   
    44    22    82 1   
    45    23    83 1   
    46    25    26 1   
    47    25    84 1   
    48    25    85 1   
    49    26    27 1   
    50    26    86 1   
    51    26    87 1   
    52    27    28 1   
    53    27    88 1   
    54    28    29 2   
    55    28    30 1   
    56    30    31 ar  
    57    30    34 ar  
    58    31    32 ar  
    59    31    89 1   
    60    32    33 ar  
    61    32    90 1   
    62    33    35 ar  
    63    33    91 1   
    64    34    35 ar  
    65    34    92 1   
    66    35    36 1   
    67    36    37 2   
    68    36    38 1   
    69    38    39 1   
    70    38    93 1   
    71    39    40 1   
    72    39    94 1   
    73    39    95 1   
    74    40    41 1   
    75    40    96 1   
    76    40    97 1   
    77    41    42 1   
    78    41    50 1   
    79    42    43 1   
    80    42    46 1   
    81    42    98 1   
    82    43    44 1   
    83    43    45 1   
    84    43    99 1   
    85    44   100 1   
    86    44   101 1   
    87    44   102 1   
    88    45   103 1   
    89    45   104 1   
    90    45   105 1   
    91    46    47 1   
    92    46    49 2   
    93    47    48 1   
    94    47   106 1   
    95    48   107 1   
    96    50    51 2   
    97    50    52 2   
    98    50    53 1   
    99    53    54 ar  
   100    53    58 ar  
   101    54    55 ar  
   102    54   108 1   
   103    55    56 ar  
   104    55   109 1   
   105    56    57 ar  
   106    56    59 1   
   107    57    58 ar  
   108    57   110 1   
   109    58   111 1   
   110    59    60 ar  
   111    59    64 ar  
   112    60    61 ar  
   113    60   112 1   
   114    61    62 ar  
   115    61   113 1   
   116    62    63 ar  
   117    62   114 1   
   118    63    64 ar  
   119    63   115 1   
   120    64   116 1   
@<TRIPOS>SUBSTRUCTURE
     1 L29         1 TEMP              0 ****  ****    0 ROOT
