@<TRIPOS>MOLECULE
L2C
   75    74     1     0     0
SMALL
bcc


@<TRIPOS>ATOM
      1 O11         -1.9250    -3.5580    -8.7140 o          1 L2C      -0.533000
      2 C11         -1.6470    -2.4030    -8.5160 c          1 L2C       0.645100
      3 C12         -2.5850    -1.3650    -7.9650 c3         1 L2C      -0.137400
      4 C13         -3.9590    -1.9060    -7.6050 c3         1 L2C      -0.068400
      5 C14         -4.8640    -0.8170    -7.0420 c3         1 L2C      -0.076400
      6 C15         -6.2460    -1.3280    -6.6580 c3         1 L2C      -0.074400
      7 C16         -7.1430    -0.2410    -6.0780 c3         1 L2C      -0.074400
      8 C17         -8.5290    -0.7410    -5.6910 c3         1 L2C      -0.075400
      9 C18         -9.4140     0.3460    -5.0930 c3         1 L2C      -0.074400
     10 C19        -10.7970    -0.1600    -4.7060 c3         1 L2C      -0.088100
     11 O21          2.6830    -4.3010    -6.1380 o          1 L2C      -0.532000
     12 C21          2.4780    -3.1210    -6.2660 c          1 L2C       0.640100
     13 C22          2.9230    -2.0480    -5.3110 c3         1 L2C      -0.136400
     14 C23          3.8490    -2.5530    -4.2170 c3         1 L2C      -0.069400
     15 C24          4.2560    -1.4440    -3.2540 c3         1 L2C      -0.075400
     16 C25          5.2030    -1.9300    -2.1650 c3         1 L2C      -0.074400
     17 C26          5.6050    -0.8380    -1.1810 c3         1 L2C      -0.074400
     18 C27          6.5620    -1.3290    -0.1030 c3         1 L2C      -0.074400
     19 C28          6.9680    -0.2440     0.8880 c3         1 L2C      -0.074400
     20 C29          7.9260    -0.7410     1.9620 c3         1 L2C      -0.074400
     21 C30          8.3350     0.3400     2.9560 c3         1 L2C      -0.075400
     22 C31          9.2840    -0.1630     4.0370 c3         1 L2C      -0.075400
     23 C32          9.6890     0.9250     5.0220 c3         1 L2C      -0.088100
     24 C41          1.2800    -3.5180    -8.2620 c3         1 L2C       0.118400
     25 O41          1.8040    -2.6100    -7.2940 os         1 L2C      -0.425900
     26 C42          0.5760    -2.7120    -9.3330 c3         1 L2C       0.112100
     27 O42         -0.4460    -1.8830    -8.7670 os         1 L2C      -0.431900
     28 C43          1.5120    -1.7840   -10.0930 c3         1 L2C       0.140400
     29 O43          0.8690    -1.1380   -11.1630 oh         1 L2C      -0.589800
     30 H121        -2.6710    -0.5610    -8.7040 hc         1 L2C       0.070700
     31 H122        -2.1110    -0.9070    -7.0910 hc         1 L2C       0.070700
     32 H131        -4.4280    -2.3470    -8.4890 hc         1 L2C       0.055200
     33 H132        -3.8600    -2.7110    -6.8720 hc         1 L2C       0.055200
     34 H141        -4.9660    -0.0110    -7.7780 hc         1 L2C       0.036700
     35 H142        -4.3880    -0.3660    -6.1640 hc         1 L2C       0.036700
     36 H151        -6.7290    -1.7690    -7.5370 hc         1 L2C       0.040700
     37 H152        -6.1420    -2.1390    -5.9290 hc         1 L2C       0.040700
     38 H161        -6.6570     0.1950    -5.1980 hc         1 L2C       0.036700
     39 H162        -7.2410     0.5730    -6.8040 hc         1 L2C       0.036700
     40 H171        -8.4310    -1.5630    -4.9730 hc         1 L2C       0.038200
     41 H172        -9.0220    -1.1660    -6.5730 hc         1 L2C       0.038200
     42 H181        -9.5110     1.1680    -5.8100 hc         1 L2C       0.036700
     43 H182        -8.9190     0.7690    -4.2130 hc         1 L2C       0.036700
     44 H191       -10.7300    -0.9580    -3.9650 hc         1 L2C       0.031700
     45 H192       -11.3290    -0.5590    -5.5710 hc         1 L2C       0.031700
     46 H193       -11.4110     0.6350    -4.2800 hc         1 L2C       0.031700
     47 H221         3.3990    -1.2470    -5.8840 hc         1 L2C       0.071200
     48 H222         2.0240    -1.6000    -4.8740 hc         1 L2C       0.071200
     49 H231         3.3590    -3.3530    -3.6560 hc         1 L2C       0.054700
     50 H232         4.7450    -2.9920    -4.6640 hc         1 L2C       0.054700
     51 H241         3.3610    -1.0130    -2.7930 hc         1 L2C       0.037200
     52 H242         4.7310    -0.6300    -3.8140 hc         1 L2C       0.037200
     53 H251         4.7340    -2.7540    -1.6170 hc         1 L2C       0.040200
     54 H252         6.1030    -2.3480    -2.6300 hc         1 L2C       0.040200
     55 H261         4.7070    -0.4250    -0.7090 hc         1 L2C       0.037200
     56 H262         6.0680    -0.0090    -1.7290 hc         1 L2C       0.037200
     57 H271         7.4600    -1.7400    -0.5760 hc         1 L2C       0.037700
     58 H272         6.1000    -2.1590     0.4420 hc         1 L2C       0.037700
     59 H281         7.4290     0.5880     0.3450 hc         1 L2C       0.036700
     60 H282         6.0700     0.1670     1.3650 hc         1 L2C       0.036700
     61 H291         7.4630    -1.5730     2.5050 hc         1 L2C       0.036700
     62 H292         8.8230    -1.1530     1.4860 hc         1 L2C       0.036700
     63 H301         7.4380     0.7560     3.4290 hc         1 L2C       0.036700
     64 H302         8.8060     1.1690     2.4170 hc         1 L2C       0.036700
     65 H311        10.1780    -0.5830     3.5660 hc         1 L2C       0.036700
     66 H312         8.8110    -0.9880     4.5780 hc         1 L2C       0.036700
     67 H321        10.2140     1.7380     4.5180 hc         1 L2C       0.031367
     68 H322        10.3500     0.5370     5.7990 hc         1 L2C       0.031367
     69 H323         8.8160     1.3540     5.5160 hc         1 L2C       0.031367
     70 H411         2.0810    -4.0980    -8.7270 h1         1 L2C       0.066200
     71 H412         0.5930    -4.2210    -7.7890 h1         1 L2C       0.066200
     72 H42          0.1350    -3.4240   -10.0370 h1         1 L2C       0.084700
     73 H431         2.3120    -2.3940   -10.5170 h1         1 L2C       0.058200
     74 H432         1.9800    -1.0690    -9.4080 h1         1 L2C       0.058200
     75 HO43         0.2970    -0.4530   -10.8030 ho         1 L2C       0.411000
@<TRIPOS>BOND
     1     1     2 2   
     2     2     3 1   
     3     2    27 1   
     4     3     4 1   
     5     3    30 1   
     6     3    31 1   
     7     4     5 1   
     8     4    32 1   
     9     4    33 1   
    10     5     6 1   
    11     5    34 1   
    12     5    35 1   
    13     6     7 1   
    14     6    36 1   
    15     6    37 1   
    16     7     8 1   
    17     7    38 1   
    18     7    39 1   
    19     8     9 1   
    20     8    40 1   
    21     8    41 1   
    22     9    10 1   
    23     9    42 1   
    24     9    43 1   
    25    10    44 1   
    26    10    45 1   
    27    10    46 1   
    28    11    12 2   
    29    12    13 1   
    30    12    25 1   
    31    13    14 1   
    32    13    47 1   
    33    13    48 1   
    34    14    15 1   
    35    14    49 1   
    36    14    50 1   
    37    15    16 1   
    38    15    51 1   
    39    15    52 1   
    40    16    17 1   
    41    16    53 1   
    42    16    54 1   
    43    17    18 1   
    44    17    55 1   
    45    17    56 1   
    46    18    19 1   
    47    18    57 1   
    48    18    58 1   
    49    19    20 1   
    50    19    59 1   
    51    19    60 1   
    52    20    21 1   
    53    20    61 1   
    54    20    62 1   
    55    21    22 1   
    56    21    63 1   
    57    21    64 1   
    58    22    23 1   
    59    22    65 1   
    60    22    66 1   
    61    23    67 1   
    62    23    68 1   
    63    23    69 1   
    64    24    25 1   
    65    24    26 1   
    66    24    70 1   
    67    24    71 1   
    68    26    27 1   
    69    26    28 1   
    70    26    72 1   
    71    28    29 1   
    72    28    73 1   
    73    28    74 1   
    74    29    75 1   
@<TRIPOS>SUBSTRUCTURE
     1 L2C         1 TEMP              0 ****  ****    0 ROOT
