@<TRIPOS>MOLECULE
L2C
   75    74     1     0     0
SMALL
No Charge or Current Charge


@<TRIPOS>ATOM
      1 O11         -1.4870    -3.4550   -10.3440 o          1 L2C      -0.484000
      2 C11         -1.2710    -2.3630    -9.8370 c          1 L2C       0.596100
      3 C12         -2.3720    -1.3730    -9.4560 c3         1 L2C      -0.137400
      4 C13         -2.9050    -1.6620    -8.0320 c3         1 L2C      -0.068400
      5 C14         -3.9990    -0.6710    -7.5820 c3         1 L2C      -0.076400
      6 C15         -4.5250    -0.9590    -6.1590 c3         1 L2C      -0.074400
      7 C16         -5.6180     0.0330    -5.7060 c3         1 L2C      -0.074400
      8 C17         -6.1430    -0.2550    -4.2820 c3         1 L2C      -0.075400
      9 C18         -7.2360     0.7370    -3.8280 c3         1 L2C      -0.074400
     10 C19         -7.7590     0.4510    -2.4070 c3         1 L2C      -0.088100
     11 O21          1.0710    -5.3240    -6.3010 o          1 L2C      -0.483000
     12 C21          1.0910    -4.1020    -6.2350 c          1 L2C       0.591100
     13 C22          1.0880    -3.3210    -4.9200 c3         1 L2C      -0.136400
     14 C23          2.5200    -3.1570    -4.3610 c3         1 L2C      -0.069400
     15 C24          2.5640    -2.3600    -3.0380 c3         1 L2C      -0.075400
     16 C25          3.9940    -2.1960    -2.4790 c3         1 L2C      -0.074400
     17 C26          4.0380    -1.3990    -1.1570 c3         1 L2C      -0.074400
     18 C27          5.4680    -1.2350    -0.5980 c3         1 L2C      -0.074400
     19 C28          5.5120    -0.4370     0.7240 c3         1 L2C      -0.074400
     20 C29          6.9420    -0.2730     1.2840 c3         1 L2C      -0.074400
     21 C30          6.9860     0.5240     2.6060 c3         1 L2C      -0.075400
     22 C31          8.4160     0.6890     3.1660 c3         1 L2C      -0.075400
     23 C32          8.4600     1.4840     4.4850 c3         1 L2C      -0.088100
     24 C41          1.1250    -3.8610    -8.6360 c3         1 L2C       0.141600
     25 O41          1.1290    -3.2680    -7.3200 os         1 L2C      -0.449100
     26 C42          1.1360    -2.7290    -9.7040 c3         1 L2C       0.135300
     27 O42         -0.0260    -1.8750    -9.5310 os         1 L2C      -0.455100
     28 C43          2.3970    -1.8310    -9.6110 c3         1 L2C       0.163600
     29 O43          2.2940    -0.7340   -10.5350 oh         1 L2C      -0.652000
     30 H121        -3.1960    -1.4510   -10.1740 hc         1 L2C       0.070700
     31 H122        -1.9550    -0.3590    -9.4490 hc         1 L2C       0.070700
     32 H131        -3.3050    -2.6840    -7.9980 hc         1 L2C       0.055200
     33 H132        -2.0690    -1.6240    -7.3210 hc         1 L2C       0.055200
     34 H141        -4.8360    -0.7110    -8.2910 hc         1 L2C       0.036700
     35 H142        -3.5980     0.3500    -7.6180 hc         1 L2C       0.036700
     36 H151        -4.9270    -1.9790    -6.1230 hc         1 L2C       0.040700
     37 H152        -3.6870    -0.9200    -5.4510 hc         1 L2C       0.040700
     38 H161        -5.2160     1.0530    -5.7420 hc         1 L2C       0.036700
     39 H162        -6.4560    -0.0070    -6.4130 hc         1 L2C       0.036700
     40 H171        -5.3050    -0.2150    -3.5740 hc         1 L2C       0.038200
     41 H172        -6.5450    -1.2750    -4.2450 hc         1 L2C       0.038200
     42 H181        -8.0770     0.6990    -4.5320 hc         1 L2C       0.036700
     43 H182        -6.8370     1.7590    -3.8610 hc         1 L2C       0.036700
     44 H191        -6.9460     0.5160    -1.6740 hc         1 L2C       0.031700
     45 H192        -8.1980    -0.5530    -2.3500 hc         1 L2C       0.031700
     46 H193        -8.5310     1.1780    -2.1300 hc         1 L2C       0.031700
     47 H221         0.6890    -2.3160    -5.1030 hc         1 L2C       0.071200
     48 H222         0.4730    -3.8530    -4.1860 hc         1 L2C       0.071200
     49 H231         2.9600    -4.1500    -4.1990 hc         1 L2C       0.054700
     50 H232         3.1440    -2.6510    -5.1090 hc         1 L2C       0.054700
     51 H241         1.9410    -2.8670    -2.2910 hc         1 L2C       0.037200
     52 H242         2.1260    -1.3680    -3.2010 hc         1 L2C       0.037200
     53 H251         4.4330    -3.1890    -2.3160 hc         1 L2C       0.040200
     54 H252         4.6180    -1.6890    -3.2260 hc         1 L2C       0.040200
     55 H261         3.4150    -1.9060    -0.4100 hc         1 L2C       0.037200
     56 H262         3.5990    -0.4070    -1.3200 hc         1 L2C       0.037200
     57 H271         6.0910    -0.7270    -1.3450 hc         1 L2C       0.037700
     58 H272         5.9070    -2.2270    -0.4340 hc         1 L2C       0.037700
     59 H281         5.0730     0.5550     0.5610 hc         1 L2C       0.036700
     60 H282         4.8890    -0.9450     1.4720 hc         1 L2C       0.036700
     61 H291         7.3810    -1.2650     1.4470 hc         1 L2C       0.036700
     62 H292         7.5650     0.2340     0.5370 hc         1 L2C       0.036700
     63 H301         6.3630     0.0170     3.3530 hc         1 L2C       0.036700
     64 H302         6.5470     1.5160     2.4430 hc         1 L2C       0.036700
     65 H311         9.0420     1.1980     2.4220 hc         1 L2C       0.036700
     66 H312         8.8580    -0.3020     3.3320 hc         1 L2C       0.036700
     67 H321         8.0570     2.4940     4.3430 hc         1 L2C       0.031367
     68 H322         9.4930     1.5740     4.8420 hc         1 L2C       0.031367
     69 H323         7.8710     0.9810     5.2610 hc         1 L2C       0.031367
     70 H411         2.0120    -4.4920    -8.7770 h1         1 L2C       0.066200
     71 H412         0.2420    -4.4980    -8.7740 h1         1 L2C       0.066200
     72 H42          1.1280    -3.1920   -10.7000 h1         1 L2C       0.084700
     73 H431         3.2880    -2.4360    -9.8270 h1         1 L2C       0.058200
     74 H432         2.4950    -1.4530    -8.5850 h1         1 L2C       0.058200
     75 HO43         1.3780    -0.3910   -10.4330 ho         1 L2C       0.450000
@<TRIPOS>BOND
     1     1     2 2   
     2     2     3 1   
     3     2    27 1   
     4     3     4 1   
     5     3    30 1   
     6     3    31 1   
     7     4     5 1   
     8     4    32 1   
     9     4    33 1   
    10     5     6 1   
    11     5    34 1   
    12     5    35 1   
    13     6     7 1   
    14     6    36 1   
    15     6    37 1   
    16     7     8 1   
    17     7    38 1   
    18     7    39 1   
    19     8     9 1   
    20     8    40 1   
    21     8    41 1   
    22     9    10 1   
    23     9    42 1   
    24     9    43 1   
    25    10    44 1   
    26    10    45 1   
    27    10    46 1   
    28    11    12 2   
    29    12    13 1   
    30    12    25 1   
    31    13    14 1   
    32    13    47 1   
    33    13    48 1   
    34    14    15 1   
    35    14    49 1   
    36    14    50 1   
    37    15    16 1   
    38    15    51 1   
    39    15    52 1   
    40    16    17 1   
    41    16    53 1   
    42    16    54 1   
    43    17    18 1   
    44    17    55 1   
    45    17    56 1   
    46    18    19 1   
    47    18    57 1   
    48    18    58 1   
    49    19    20 1   
    50    19    59 1   
    51    19    60 1   
    52    20    21 1   
    53    20    61 1   
    54    20    62 1   
    55    21    22 1   
    56    21    63 1   
    57    21    64 1   
    58    22    23 1   
    59    22    65 1   
    60    22    66 1   
    61    23    67 1   
    62    23    68 1   
    63    23    69 1   
    64    24    25 1   
    65    24    26 1   
    66    24    70 1   
    67    24    71 1   
    68    26    27 1   
    69    26    28 1   
    70    26    72 1   
    71    28    29 1   
    72    28    73 1   
    73    28    74 1   
    74    29    75 1   
@<TRIPOS>SUBSTRUCTURE
     1 L2C         1 TEMP              0 ****  ****    0 ROOT
