@<TRIPOS>MOLECULE
L2E
   59    61     1     0     0
SMALL
No Charge or Current Charge


@<TRIPOS>ATOM
      1 CAA          7.3890     4.6570    -0.6240 c3         1 L2E      -0.054400
      2 CAT          6.5230     3.4740    -0.2310 c2         1 L2E      -0.115400
      3 CAB          5.0470     3.7260    -0.4980 c3         1 L2E      -0.054400
      4 CAI          7.0400     2.3430     0.2880 c2         1 L2E      -0.220200
      5 CAO          6.2850     1.1070     0.7440 c3         1 L2E      -0.037200
      6 CAQ          6.0590     0.1030    -0.4070 c3         1 L2E      -0.034200
      7 CAU          5.2110    -1.0940     0.0010 c2         1 L2E      -0.112400
      8 CAC          5.9750    -2.1130     0.8370 c3         1 L2E      -0.056900
      9 CAJ          3.9230    -1.2140    -0.3740 c2         1 L2E      -0.216200
     10 CAP          2.9600    -2.3360    -0.0260 c3         1 L2E       0.036100
     11 CBC          1.4940    -1.9010    -0.1620 ca         1 L2E      -0.214300
     12 CAZ          0.8130    -1.3130     0.9250 ca         1 L2E       0.293100
     13 OAH          1.4540    -1.1300     2.1100 oh         1 L2E      -0.535100
     14 CAY          0.8090    -2.0610    -1.3830 ca         1 L2E       0.250100
     15 OAG          1.4280    -2.6010    -2.4680 oh         1 L2E      -0.519100
     16 CAN         -0.5250    -1.6650    -1.5040 ca         1 L2E      -0.313000
     17 CBB         -1.1930    -1.1030    -0.4170 ca         1 L2E       0.269100
     18 OAS         -2.5100    -0.7440    -0.5800 os         1 L2E      -0.337100
     19 CBD         -0.5260    -0.9030     0.8000 ca         1 L2E      -0.422600
     20 CAV         -1.2640    -0.2370     1.9150 c          1 L2E       0.614700
     21 OAD         -0.8310    -0.2320     3.0610 o          1 L2E      -0.576100
     22 CAR         -2.5970     0.3900     1.5660 c6         1 L2E      -0.206400
     23 CBE         -3.3300    -0.5250     0.5810 c6         1 L2E       0.235600
     24 CBA         -4.6790     0.0500     0.1330 ca         1 L2E      -0.092300
     25 CAM         -5.8800    -0.5660     0.5410 ca         1 L2E      -0.105000
     26 CAX         -7.1170    -0.0400     0.1360 ca         1 L2E       0.120100
     27 OAF         -8.2800    -0.6350     0.5310 oh         1 L2E      -0.532100
     28 CAW         -7.1680     1.1070    -0.6820 ca         1 L2E       0.057100
     29 OAE         -8.3780     1.6170    -1.0750 oh         1 L2E      -0.555100
     30 CAK         -5.9750     1.7250    -1.0930 ca         1 L2E      -0.164000
     31 CAL         -4.7360     1.1980    -0.6870 ca         1 L2E      -0.079000
     32 H1           7.2890     4.8820    -1.6920 hc         1 L2E       0.037700
     33 H2           7.1070     5.5560    -0.0630 hc         1 L2E       0.037700
     34 H3           8.4510     4.4680    -0.4260 hc         1 L2E       0.037700
     35 H5           4.4170     2.8580    -0.2750 hc         1 L2E       0.037700
     36 H6           4.6770     4.5630     0.1070 hc         1 L2E       0.037700
     37 H7           4.8780     3.9790    -1.5510 hc         1 L2E       0.037700
     38 H8           8.1180     2.2630     0.4350 ha         1 L2E       0.163000
     39 H10          6.8410     0.6180     1.5520 hc         1 L2E       0.047200
     40 H11          5.3140     1.3810     1.1740 hc         1 L2E       0.047200
     41 H12          5.5710     0.6390    -1.2320 hc         1 L2E       0.043700
     42 H13          7.0280    -0.2280    -0.8000 hc         1 L2E       0.043700
     43 H14          6.9010    -2.4180     0.3340 hc         1 L2E       0.040033
     44 H15          6.2480    -1.7000     1.8150 hc         1 L2E       0.040033
     45 H16          5.4000    -3.0270     1.0200 hc         1 L2E       0.040033
     46 H17          3.4680    -0.4330    -0.9850 ha         1 L2E       0.168000
     47 H18          3.1640    -3.1990    -0.6710 hc         1 L2E       0.058200
     48 H19          3.1500    -2.7030     0.9900 hc         1 L2E       0.058200
     49 H20          0.7690    -0.7740     2.7290 ho         1 L2E       0.518000
     50 H21          0.7830    -2.6190    -3.2040 ho         1 L2E       0.473000
     51 H22         -1.0590    -1.7960    -2.4410 ha         1 L2E       0.135000
     52 H25         -3.1730     0.6140     2.4720 hc         1 L2E       0.089200
     53 H26         -2.3790     1.3230     1.0330 hc         1 L2E       0.089200
     54 H27         -3.4980    -1.4990     1.0630 h1         1 L2E       0.062700
     55 H28         -5.8570    -1.4510     1.1730 ha         1 L2E       0.133000
     56 H29         -9.0040    -0.1010     0.1330 ho         1 L2E       0.484000
     57 H30         -8.2210     2.4090    -1.6360 ho         1 L2E       0.478000
     58 H31         -5.9990     2.6100    -1.7250 ha         1 L2E       0.117000
     59 H32         -3.8160     1.6810    -1.0130 ha         1 L2E       0.126000
@<TRIPOS>BOND
     1     1     2 1   
     2     1    32 1   
     3     1    33 1   
     4     1    34 1   
     5     2     3 1   
     6     2     4 2   
     7     3    35 1   
     8     3    36 1   
     9     3    37 1   
    10     4     5 1   
    11     4    38 1   
    12     5     6 1   
    13     5    39 1   
    14     5    40 1   
    15     6     7 1   
    16     6    41 1   
    17     6    42 1   
    18     7     8 1   
    19     7     9 2   
    20     8    43 1   
    21     8    44 1   
    22     8    45 1   
    23     9    10 1   
    24     9    46 1   
    25    10    11 1   
    26    10    47 1   
    27    10    48 1   
    28    11    12 ar  
    29    11    14 ar  
    30    12    13 1   
    31    12    19 ar  
    32    13    49 1   
    33    14    15 1   
    34    14    16 ar  
    35    15    50 1   
    36    16    17 ar  
    37    16    51 1   
    38    17    18 1   
    39    17    19 ar  
    40    18    23 1   
    41    19    20 1   
    42    20    21 2   
    43    20    22 1   
    44    22    23 1   
    45    22    52 1   
    46    22    53 1   
    47    23    24 1   
    48    23    54 1   
    49    24    25 ar  
    50    24    31 ar  
    51    25    26 ar  
    52    25    55 1   
    53    26    27 1   
    54    26    28 ar  
    55    27    56 1   
    56    28    29 1   
    57    28    30 ar  
    58    29    57 1   
    59    30    31 ar  
    60    30    58 1   
    61    31    59 1   
@<TRIPOS>SUBSTRUCTURE
     1 L2E         1 TEMP              0 ****  ****    0 ROOT
