@<TRIPOS>MOLECULE
L2E
   59    61     1     0     0
SMALL
bcc


@<TRIPOS>ATOM
      1 CAA          7.5290     4.4960    -0.4750 c3         1 L2E      -0.054400
      2 CAT          6.3900     3.5380    -0.2830 c2         1 L2E      -0.115400
      3 CAB          5.0720     4.0350    -0.7990 c3         1 L2E      -0.054400
      4 CAI          6.5800     2.3560     0.3100 c2         1 L2E      -0.170200
      5 CAO          5.5720     1.2820     0.5800 c3         1 L2E      -0.037200
      6 CAQ          5.8370     0.0190    -0.2540 c3         1 L2E      -0.034200
      7 CAU          4.9420    -1.1210     0.1410 c2         1 L2E      -0.112400
      8 CAC          5.2080    -1.7430     1.4890 c3         1 L2E      -0.056900
      9 CAJ          3.9580    -1.5280    -0.6620 c2         1 L2E      -0.166200
     10 CAP          2.9700    -2.6210    -0.3680 c3         1 L2E       0.036100
     11 CBC          1.5500    -2.1180    -0.4410 ca         1 L2E      -0.214300
     12 CAZ          0.9560    -1.4980     0.6530 ca         1 L2E       0.293100
     13 OAH          1.6650    -1.3700     1.7680 oh         1 L2E      -0.496100
     14 CAY          0.7980    -2.1980    -1.6180 ca         1 L2E       0.250100
     15 OAG          1.3880    -2.7620    -2.6760 oh         1 L2E      -0.480100
     16 CAN         -0.5170    -1.7310    -1.7050 ca         1 L2E      -0.331000
     17 CBB         -1.0940    -1.1430    -0.6010 ca         1 L2E       0.269100
     18 OAS         -2.3580    -0.7100    -0.7170 os         1 L2E      -0.313900
     19 CBD         -0.3700    -0.9970     0.5980 ca         1 L2E      -0.422600
     20 CAV         -0.9340    -0.2630     1.7030 c          1 L2E       0.614700
     21 OAD         -0.3320    -0.0870     2.7630 o          1 L2E      -0.576100
     22 CAR         -2.2960     0.3270     1.4680 c6         1 L2E      -0.206400
     23 CBE         -3.0910    -0.5300     0.4970 c6         1 L2E       0.212400
     24 CBA         -4.4230     0.0690     0.1530 ca         1 L2E      -0.092300
     25 CAM         -5.5810    -0.4970     0.6760 ca         1 L2E      -0.123000
     26 CAX         -6.8260     0.0560     0.4180 ca         1 L2E       0.120100
     27 OAF         -7.9210    -0.5250     0.9520 oh         1 L2E      -0.493100
     28 CAW         -6.9170     1.1940    -0.3920 ca         1 L2E       0.057100
     29 OAE         -8.1620     1.6730    -0.6100 oh         1 L2E      -0.516100
     30 CAK         -5.7630     1.7560    -0.9150 ca         1 L2E      -0.182000
     31 CAL         -4.5190     1.2030    -0.6430 ca         1 L2E      -0.097000
     32 H1           7.6950     4.7020    -1.5360 hc         1 L2E       0.037700
     33 H2           7.3130     5.4600    -0.0040 hc         1 L2E       0.037700
     34 H3           8.4610     4.1180    -0.0560 hc         1 L2E       0.037700
     35 H5           4.2660     3.3090    -0.7130 hc         1 L2E       0.037700
     36 H6           4.7670     4.9380    -0.2640 hc         1 L2E       0.037700
     37 H7           5.1550     4.3160    -1.8510 hc         1 L2E       0.037700
     38 H8           7.5920     2.1140     0.6290 ha         1 L2E       0.113000
     39 H10          5.6130     1.0230     1.6430 hc         1 L2E       0.047200
     40 H11          4.5530     1.6230     0.3890 hc         1 L2E       0.047200
     41 H12          5.7050     0.2590    -1.3120 hc         1 L2E       0.043700
     42 H13          6.8850    -0.2760    -0.1270 hc         1 L2E       0.043700
     43 H14          6.0390    -1.2540     1.9980 hc         1 L2E       0.040033
     44 H15          4.3380    -1.6800     2.1430 hc         1 L2E       0.040033
     45 H16          5.4670    -2.8000     1.4020 hc         1 L2E       0.040033
     46 H17          3.8320    -1.0310    -1.6210 ha         1 L2E       0.118000
     47 H18          3.1020    -3.4360    -1.0830 hc         1 L2E       0.058200
     48 H19          3.1570    -3.0520     0.6150 hc         1 L2E       0.058200
     49 H20          1.1130    -0.8800     2.4220 ho         1 L2E       0.479000
     50 H21          0.7930    -2.7740    -3.4360 ho         1 L2E       0.434000
     51 H22         -1.0830    -1.8360    -2.6230 ha         1 L2E       0.153000
     52 H25         -2.8320     0.4220     2.4120 hc         1 L2E       0.089200
     53 H26         -2.1620     1.3380     1.0650 hc         1 L2E       0.089200
     54 H27         -3.2460    -1.5180     0.9500 h1         1 L2E       0.062700
     55 H28         -5.5230    -1.3830     1.2990 ha         1 L2E       0.151000
     56 H29         -8.7160    -0.0420     0.6990 ho         1 L2E       0.445000
     57 H30         -8.1380     2.4570    -1.1690 ho         1 L2E       0.439000
     58 H31         -5.8350     2.6370    -1.5440 ha         1 L2E       0.135000
     59 H32         -3.6350     1.6660    -1.0610 ha         1 L2E       0.144000
@<TRIPOS>BOND
     1     1     2 1   
     2     1    32 1   
     3     1    33 1   
     4     1    34 1   
     5     2     3 1   
     6     2     4 2   
     7     3    35 1   
     8     3    36 1   
     9     3    37 1   
    10     4     5 1   
    11     4    38 1   
    12     5     6 1   
    13     5    39 1   
    14     5    40 1   
    15     6     7 1   
    16     6    41 1   
    17     6    42 1   
    18     7     8 1   
    19     7     9 2   
    20     8    43 1   
    21     8    44 1   
    22     8    45 1   
    23     9    10 1   
    24     9    46 1   
    25    10    11 1   
    26    10    47 1   
    27    10    48 1   
    28    11    12 ar  
    29    11    14 ar  
    30    12    13 1   
    31    12    19 ar  
    32    13    49 1   
    33    14    15 1   
    34    14    16 ar  
    35    15    50 1   
    36    16    17 ar  
    37    16    51 1   
    38    17    18 1   
    39    17    19 ar  
    40    18    23 1   
    41    19    20 1   
    42    20    21 2   
    43    20    22 1   
    44    22    23 1   
    45    22    52 1   
    46    22    53 1   
    47    23    24 1   
    48    23    54 1   
    49    24    25 ar  
    50    24    31 ar  
    51    25    26 ar  
    52    25    55 1   
    53    26    27 1   
    54    26    28 ar  
    55    27    56 1   
    56    28    29 1   
    57    28    30 ar  
    58    29    57 1   
    59    30    31 ar  
    60    30    58 1   
    61    31    59 1   
@<TRIPOS>SUBSTRUCTURE
     1 L2E         1 TEMP              0 ****  ****    0 ROOT
