@<TRIPOS>MOLECULE
L2F
   66    69     1     0     0
SMALL
No Charge or Current Charge


@<TRIPOS>ATOM
      1 N1           9.8680   -24.4110     1.1840 na         1 L2F      -0.224700
      2 C4          14.9270   -23.1760    -1.0000 c          1 L2F       0.574100
      3 C5          12.7800   -21.8830    -1.3310 c3         1 L2F       0.108700
      4 C6          11.5740   -21.4790    -0.4410 c3         1 L2F      -0.007200
      5 C7          11.0540   -22.5970     0.4270 cc         1 L2F      -0.143400
      6 C8          10.0300   -23.4890     0.1210 cd         1 L2F      -0.148100
      7 C10         11.0240   -24.6580     3.3850 ca         1 L2F      -0.135000
      8 C13         12.5120   -22.3910     2.5450 ca         1 L2F      -0.073000
      9 C15         13.2880   -20.7050    -2.2130 c3         1 L2F       0.143600
     10 C17         12.7230   -25.7670    -0.9980 ca         1 L2F       0.015000
     11 C20         13.6370   -26.8690    -3.4140 ca         1 L2F      -0.056000
     12 C21         14.0640   -27.4070    -4.6430 ca         1 L2F      -0.087000
     13 C22         15.3490   -27.9520    -4.7690 ca         1 L2F      -0.114000
     14 C24         15.7940   -27.4280    -2.4340 ca         1 L2F      -0.117000
     15 N           13.8660   -22.4410    -0.5100 ns         1 L2F      -0.495900
     16 O           15.0250   -23.4430    -2.1910 o          1 L2F      -0.597100
     17 C1          18.1730   -23.1920    -1.2380 c3         1 L2F      -0.077400
     18 C11         12.0220   -24.1130     4.2200 ca         1 L2F      -0.088000
     19 C12         12.7620   -22.9810     3.8030 ca         1 L2F      -0.124000
     20 C14         11.5230   -22.9680     1.7330 ca         1 L2F      -0.089800
     21 C16         14.0260   -26.3110    -1.0570 ca         1 L2F      -0.282500
     22 C18         11.8900   -25.7760    -2.1250 ca         1 L2F      -0.136000
     23 C19         12.3440   -26.3240    -3.3290 ca         1 L2F      -0.041000
     24 C2          17.2990   -22.8920     0.0210 c3         1 L2F      -0.046700
     25 C23         16.2110   -27.9610    -3.6660 ca         1 L2F      -0.081000
     26 C25         14.4970   -26.8730    -2.2820 ca         1 L2F       0.062000
     27 C3          15.9540   -23.6880     0.0710 c3         1 L2F       0.140500
     28 C9          10.7990   -24.0540     2.1410 ca         1 L2F      -0.054200
     29 N2          16.2200   -25.1610    -0.0170 n7         1 L2F      -0.871300
     30 O1          12.2660   -20.2460    -3.1110 oh         1 L2F      -0.658000
     31 S           15.0150   -26.2240     0.4500 sy         1 L2F       1.158600
     32 HN1          9.1960   -25.1700     1.2390 hn         1 L2F       0.349000
     33 H2          12.4390   -22.6790    -2.0080 h1         1 L2F       0.097700
     34 H9          11.8610   -20.6280     0.1890 hc         1 L2F       0.054700
     35 H10         10.7590   -21.1200    -1.0810 hc         1 L2F       0.054700
     36 H11          9.4160   -23.5390    -0.7740 h4         1 L2F       0.214000
     37 H12         10.4450   -25.5230     3.7010 ha         1 L2F       0.112000
     38 H15         13.0660   -21.5120     2.2260 ha         1 L2F       0.101000
     39 H16         14.1630   -21.0330    -2.7880 h1         1 L2F       0.023200
     40 H17         13.6150   -19.8850    -1.5590 h1         1 L2F       0.023200
     41 H20         12.3420   -25.3280    -0.0780 ha         1 L2F       0.147000
     42 H23         13.4000   -27.4020    -5.5050 ha         1 L2F       0.110000
     43 H24         15.6750   -28.3660    -5.7210 ha         1 L2F       0.115000
     44 H26         16.5060   -27.4670    -1.6190 ha         1 L2F       0.120000
     45 H8          13.8060   -22.3290     0.4940 hn         1 L2F       0.311500
     46 H4          19.9000   -22.4740    -2.3580 hc         1 L2F       0.033367
     47 H5          19.1100   -21.2190    -1.3820 hc         1 L2F       0.033367
     48 H3          20.1380   -22.4480    -0.6040 hc         1 L2F       0.033367
     49 H6          17.5650   -23.0840    -2.1420 hc         1 L2F       0.045200
     50 H7          18.5150   -24.2340    -1.2140 hc         1 L2F       0.045200
     51 H13         12.2210   -24.5610     5.1910 ha         1 L2F       0.115000
     52 H14         13.5240   -22.5610     4.4550 ha         1 L2F       0.117000
     53 H21         10.8910   -25.3540    -2.0640 ha         1 L2F       0.113000
     54 H22         11.6890   -26.3230    -4.1970 ha         1 L2F       0.110000
     55 H           17.0250   -21.8300    -0.0250 hc         1 L2F       0.038700
     56 H25         17.2090   -28.3840    -3.7620 ha         1 L2F       0.115000
     57 H1          15.5070   -23.4520     1.0470 h1         1 L2F       0.096700
     58 H19         16.2940   -25.3850    -1.0080 hn         1 L2F       0.498000
     59 H18         12.6560   -19.5160    -3.6420 ho         1 L2F       0.447000
     60 C26         18.0950   -23.0770     1.3410 c3         1 L2F      -0.085100
     61 O2          15.6980   -27.4950     0.7020 o          1 L2F      -0.540500
     62 C           19.4050   -22.2750    -1.4000 c3         1 L2F      -0.089100
     63 O3          14.2580   -25.5480     1.5050 o          1 L2F      -0.540500
     64 H28         17.4560   -22.8840     2.2110 hc         1 L2F       0.042033
     65 H29         18.4830   -24.0990     1.4240 hc         1 L2F       0.042033
     66 H27         18.9400   -22.3820     1.3970 hc         1 L2F       0.042033
@<TRIPOS>BOND
     1     1     6 1   
     2     1    28 1   
     3     1    32 1   
     4     2    15 1   
     5     2    16 2   
     6     2    27 1   
     7     3     4 1   
     8     3     9 1   
     9     3    15 1   
    10     3    33 1   
    11     4     5 1   
    12     4    34 1   
    13     4    35 1   
    14     5     6 2   
    15     5    20 1   
    16     6    36 1   
    17     7    18 ar  
    18     7    28 ar  
    19     7    37 1   
    20     8    19 ar  
    21     8    20 ar  
    22     8    38 1   
    23     9    30 1   
    24     9    39 1   
    25     9    40 1   
    26    10    21 ar  
    27    10    22 ar  
    28    10    41 1   
    29    11    12 ar  
    30    11    23 ar  
    31    11    26 ar  
    32    12    13 ar  
    33    12    42 1   
    34    13    25 ar  
    35    13    43 1   
    36    14    25 ar  
    37    14    26 ar  
    38    14    44 1   
    39    15    45 1   
    40    17    24 1   
    41    17    49 1   
    42    17    50 1   
    43    17    62 1   
    44    18    19 ar  
    45    18    51 1   
    46    19    52 1   
    47    20    28 ar  
    48    21    26 ar  
    49    21    31 1   
    50    22    23 ar  
    51    22    53 1   
    52    23    54 1   
    53    24    27 1   
    54    24    55 1   
    55    24    60 1   
    56    25    56 1   
    57    27    29 1   
    58    27    57 1   
    59    29    31 1   
    60    29    58 1   
    61    30    59 1   
    62    31    61 2   
    63    31    63 2   
    64    46    62 1   
    65    47    62 1   
    66    48    62 1   
    67    60    64 1   
    68    60    65 1   
    69    60    66 1   
@<TRIPOS>SUBSTRUCTURE
     1 L2F         1 TEMP              0 ****  ****    0 ROOT
