@<TRIPOS>MOLECULE
L2F
   66    69     1     0     0
SMALL
abcg2


@<TRIPOS>ATOM
      1 N1           9.8060   -23.9130     0.1310 na         1 L2F      -0.224700
      2 C4          14.9780   -23.2530    -1.0020 c          1 L2F       0.574100
      3 C5          13.2920   -21.5120    -1.5060 c3         1 L2F       0.108700
      4 C6          12.0730   -21.1190    -0.6660 c3         1 L2F      -0.007200
      5 C7          11.3310   -22.2820    -0.0910 cc         1 L2F      -0.143400
      6 C8          10.2390   -22.8810    -0.6520 cd         1 L2F      -0.148100
      7 C10         10.5590   -24.9010     2.2990 ca         1 L2F      -0.135000
      8 C13         12.5400   -22.8830     2.1510 ca         1 L2F      -0.073000
      9 C15         13.9370   -20.3160    -2.2040 c3         1 L2F       0.143600
     10 C17         13.0910   -26.4540     0.1040 ca         1 L2F       0.015000
     11 C20         13.1740   -27.4880    -2.4910 ca         1 L2F      -0.056000
     12 C21         13.1980   -28.0050    -3.8070 ca         1 L2F      -0.087000
     13 C22         14.3820   -28.2330    -4.4500 ca         1 L2F      -0.114000
     14 C24         15.6030   -27.4560    -2.5140 ca         1 L2F      -0.117000
     15 N           14.2830   -22.1540    -0.6710 ns         1 L2F      -0.495900
     16 O           14.8230   -23.8760    -2.0390 o          1 L2F      -0.597100
     17 C1          17.8900   -22.4880    -1.2310 c3         1 L2F      -0.077400
     18 C11         11.5160   -24.7680     3.2860 ca         1 L2F      -0.088000
     19 C12         12.4960   -23.7640     3.2140 ca         1 L2F      -0.124000
     20 C14         11.5910   -22.9980     1.1260 ca         1 L2F      -0.089800
     21 C16         14.3020   -26.6840    -0.4940 ca         1 L2F      -0.282500
     22 C18         11.8960   -26.7460    -0.5790 ca         1 L2F      -0.136000
     23 C19         11.9400   -27.2510    -1.8440 ca         1 L2F      -0.041000
     24 C2          17.1910   -22.6700     0.1180 c3         1 L2F      -0.046700
     25 C23         15.5920   -27.9500    -3.7910 ca         1 L2F      -0.081000
     26 C25         14.3950   -27.2090    -1.8170 ca         1 L2F       0.062000
     27 C3          16.0130   -23.6680     0.0470 c3         1 L2F       0.140500
     28 C9          10.6080   -24.0110     1.2280 ca         1 L2F      -0.054200
     29 N2          16.5040   -25.0120    -0.1840 n7         1 L2F      -0.871300
     30 O1          13.0050   -19.7510    -3.0940 oh         1 L2F      -0.658000
     31 S           15.7530   -26.3200     0.4690 sy         1 L2F       1.158600
     32 HN1          9.0100   -24.4950    -0.0680 hn         1 L2F       0.349000
     33 H2          12.9810   -22.2340    -2.2640 h1         1 L2F       0.097700
     34 H9          12.3980   -20.4420     0.1320 hc         1 L2F       0.054700
     35 H10         11.3980   -20.5400    -1.2970 hc         1 L2F       0.054700
     36 H11          9.7240   -22.6350    -1.5690 h4         1 L2F       0.214000
     37 H12          9.8010   -25.6730     2.3540 ha         1 L2F       0.112000
     38 H15         13.2970   -22.1100     2.1230 ha         1 L2F       0.101000
     39 H16         14.8370   -20.6660    -2.7270 h1         1 L2F       0.023200
     40 H17         14.2670   -19.5970    -1.4420 h1         1 L2F       0.023200
     41 H20         13.0350   -26.0510     1.1060 ha         1 L2F       0.147000
     42 H23         12.2560   -28.2140    -4.2980 ha         1 L2F       0.110000
     43 H24         14.3930   -28.6260    -5.4580 ha         1 L2F       0.115000
     44 H26         16.5610   -27.2780    -2.0520 ha         1 L2F       0.120000
     45 H8          14.5090   -21.6930     0.1980 hn         1 L2F       0.311500
     46 H4          19.3600   -21.2440    -2.2170 hc         1 L2F       0.033367
     47 H5          18.5450   -20.4510    -0.8740 hc         1 L2F       0.033367
     48 H3          19.7940   -21.6540    -0.5660 hc         1 L2F       0.033367
     49 H6          17.1510   -22.2330    -1.9960 hc         1 L2F       0.045200
     50 H7          18.3460   -23.4330    -1.5460 hc         1 L2F       0.045200
     51 H13         11.5100   -25.4450     4.1300 ha         1 L2F       0.115000
     52 H14         13.2290   -23.6810     4.0070 ha         1 L2F       0.117000
     53 H21         10.9500   -26.5720    -0.0870 ha         1 L2F       0.113000
     54 H22         11.0230   -27.4790    -2.3740 ha         1 L2F       0.110000
     55 H           16.7550   -21.7030     0.3950 hc         1 L2F       0.038700
     56 H25         16.5320   -28.1270    -4.2980 ha         1 L2F       0.115000
     57 H1          15.5310   -23.6580     1.0280 h1         1 L2F       0.096700
     58 H19         16.8900   -25.1850    -1.1060 hn         1 L2F       0.498000
     59 H18         13.3790   -18.9390    -3.4490 ho         1 L2F       0.447000
     60 C26         18.1560   -23.0740     1.2270 c3         1 L2F      -0.085100
     61 O2          16.6720   -27.4380     0.3370 o          1 L2F      -0.540500
     62 C           18.9580   -21.4010    -1.2160 c3         1 L2F      -0.089100
     63 O3          15.3140   -25.9190     1.7960 o          1 L2F      -0.540500
     64 H28         17.6260   -23.2640     2.1620 hc         1 L2F       0.042033
     65 H29         18.7090   -23.9770     0.9670 hc         1 L2F       0.042033
     66 H27         18.8800   -22.2830     1.4200 hc         1 L2F       0.042033
@<TRIPOS>BOND
     1     1     6 1   
     2     1    28 1   
     3     1    32 1   
     4     2    15 1   
     5     2    16 2   
     6     2    27 1   
     7     3     4 1   
     8     3     9 1   
     9     3    15 1   
    10     3    33 1   
    11     4     5 1   
    12     4    34 1   
    13     4    35 1   
    14     5     6 2   
    15     5    20 1   
    16     6    36 1   
    17     7    18 ar  
    18     7    28 ar  
    19     7    37 1   
    20     8    19 ar  
    21     8    20 ar  
    22     8    38 1   
    23     9    30 1   
    24     9    39 1   
    25     9    40 1   
    26    10    21 ar  
    27    10    22 ar  
    28    10    41 1   
    29    11    12 ar  
    30    11    23 ar  
    31    11    26 ar  
    32    12    13 ar  
    33    12    42 1   
    34    13    25 ar  
    35    13    43 1   
    36    14    25 ar  
    37    14    26 ar  
    38    14    44 1   
    39    15    45 1   
    40    17    24 1   
    41    17    49 1   
    42    17    50 1   
    43    17    62 1   
    44    18    19 ar  
    45    18    51 1   
    46    19    52 1   
    47    20    28 ar  
    48    21    26 ar  
    49    21    31 1   
    50    22    23 ar  
    51    22    53 1   
    52    23    54 1   
    53    24    27 1   
    54    24    55 1   
    55    24    60 1   
    56    25    56 1   
    57    27    29 1   
    58    27    57 1   
    59    29    31 1   
    60    29    58 1   
    61    30    59 1   
    62    31    61 2   
    63    31    63 2   
    64    46    62 1   
    65    47    62 1   
    66    48    62 1   
    67    60    64 1   
    68    60    65 1   
    69    60    66 1   
@<TRIPOS>SUBSTRUCTURE
     1 L2F         1 TEMP              0 ****  ****    0 ROOT
