@<TRIPOS>MOLECULE
L2G
   85    91     1     0     0
SMALL
abcg2


@<TRIPOS>ATOM
      1 C1           2.8780    63.2080    12.9510 cc         1 L2G       0.440500
      2 C2           3.8480    63.9710    12.2280 ca         1 L2G      -0.380900
      3 C3           1.6860    63.6580    13.6800 ca         1 L2G      -0.096900
      4 N1           3.1900    61.9200    12.8950 nd         1 L2G      -0.516100
      5 C4           4.7570    63.0160    11.7330 ca         1 L2G       0.165500
      6 C5           4.1810    65.3230    11.9680 ca         1 L2G       0.453900
      7 C6           0.8390    64.6220    13.1160 ca         1 L2G      -0.168000
      8 C7           1.3720    63.1340    14.9310 ca         1 L2G      -0.082000
      9 N2           4.3290    61.8060    12.1590 na         1 L2G      -0.030100
     10 N3           5.8490    63.2760    10.9930 nb         1 L2G      -0.236000
     11 N4           5.2660    65.5920    11.2180 nb         1 L2G      -0.310000
     12 N5           3.4750    66.3680    12.4280 nv         1 L2G      -1.075900
     13 C8          -0.2810    65.0620    13.8020 ca         1 L2G       0.080100
     14 C9           0.2470    63.5660    15.6240 ca         1 L2G      -0.112000
     15 C10          4.9280    60.5030    11.8860 c6         1 L2G       0.109300
     16 C11          6.0140    64.5740    10.7760 ca         1 L2G       0.194900
     17 C12         -0.5890    64.5370    15.0780 ca         1 L2G      -0.033000
     18 O1          -1.1540    65.9920    13.3310 os         1 L2G      -0.373100
     19 C13          5.3470    59.8030    13.1790 c6         1 L2G      -0.086400
     20 C14          3.9930    59.6250    11.0530 c6         1 L2G      -0.086400
     21 N6          -1.7290    65.0600    15.6950 ns         1 L2G      -0.131000
     22 C15         -0.8750    66.6200    12.0790 c3         1 L2G       0.155900
     23 C16          5.9880    58.4470    12.8770 c6         1 L2G      -0.086400
     24 C17          4.6420    58.2720    10.7600 c6         1 L2G      -0.086400
     25 C18         -2.2870    64.7340    16.8970 c          1 L2G       0.640300
     26 C19          5.0460    57.5590    12.0610 c6         1 L2G       0.186500
     27 C20         -3.5570    65.4400    17.1660 cc         1 L2G      -0.139300
     28 O2          -1.8040    63.9200    17.6810 o          1 L2G      -0.593100
     29 N7           5.5940    56.2050    11.8920 n3         1 L2G      -0.736600
     30 N8          -4.0280    65.6550    18.4530 na         1 L2G      -0.062700
     31 C21         -4.4900    65.8900    16.2530 cd         1 L2G      -0.194200
     32 C22          6.7380    56.0930    10.9930 c6         1 L2G       0.154300
     33 C23          4.5870    55.2100    11.5450 c6         1 L2G       0.154300
     34 C24         -5.2680    66.2430    18.3670 ca         1 L2G      -0.033200
     35 C25         -3.3350    65.3940    19.7050 c3         1 L2G       0.067900
     36 C26         -5.5910    66.4030    16.9910 ca         1 L2G      -0.110800
     37 C27          7.3610    54.7070    11.1090 c6         1 L2G       0.099000
     38 C28          5.1620    53.8060    11.6700 c6         1 L2G       0.099000
     39 C29         -6.1410    66.6550    19.3790 ca         1 L2G      -0.127000
     40 C30         -6.8210    66.9790    16.6350 ca         1 L2G      -0.054000
     41 N9           6.3610    53.6760    10.8480 n          1 L2G      -0.418800
     42 C31         -7.3430    67.2220    18.9950 ca         1 L2G      -0.084000
     43 C32         -7.6830    67.3830    17.6360 ca         1 L2G      -0.141000
     44 C33          6.5040    52.6470     9.9810 c          1 L2G       0.601100
     45 C34          7.7810    52.5790     9.1700 c3         1 L2G      -0.172100
     46 O3           5.6300    51.7820     9.8410 o          1 L2G      -0.616100
     47 H6           1.0460    65.0000    12.1260 ha         1 L2G       0.126000
     48 H7           2.0210    62.3940    15.3780 ha         1 L2G       0.132000
     49 H5N1         3.8250    67.2980    12.2670 hn         1 L2G       0.504000
     50 H5N2         2.7180    66.2440    13.0780 hn         1 L2G       0.504000
     51 H9           0.0200    63.1660    16.5980 ha         1 L2G       0.156000
     52 H10          5.8200    60.7280    11.2990 h1         1 L2G       0.083700
     53 H11          6.8710    64.8540    10.1720 h5         1 L2G       0.047100
     54 H131         4.4630    59.6630    13.8070 hc         1 L2G       0.058950
     55 H132         6.0430    60.4400    13.7290 hc         1 L2G       0.058950
     56 H141         3.7410    60.1410    10.1230 hc         1 L2G       0.058950
     57 H142         3.0610    59.4790    11.6070 hc         1 L2G       0.058950
     58 HA          -2.1800    65.7940    15.1700 hn         1 L2G       0.176000
     59 H151        -0.8800    65.8880    11.2680 h1         1 L2G       0.045033
     60 H152         0.0910    67.1290    12.1090 h1         1 L2G       0.045033
     61 H153        -1.6710    67.3440    11.9270 h1         1 L2G       0.045033
     62 H161         6.2470    57.9390    13.8080 hc         1 L2G       0.048450
     63 H162         6.9200    58.6100    12.3270 hc         1 L2G       0.048450
     64 H171         5.5290    58.4260    10.1390 hc         1 L2G       0.048450
     65 H172         3.9510    57.6530    10.1850 hc         1 L2G       0.048450
     66 H19          4.1370    57.4250    12.6570 h1         1 L2G       0.059700
     67 H21         -4.4130    65.8180    15.1790 ha         1 L2G       0.207000
     68 H221         7.4900    56.8340    11.2590 h1         1 L2G       0.040950
     69 H222         6.4550    56.2620     9.9410 h1         1 L2G       0.040950
     70 H231         4.2070    55.3430    10.5190 h1         1 L2G       0.040950
     71 H232         3.7420    55.3100    12.2290 h1         1 L2G       0.040950
     72 H251        -3.6460    66.1370    20.4370 h1         1 L2G       0.057367
     73 H252        -2.2640    65.4700    19.5580 h1         1 L2G       0.057367
     74 H253        -3.5700    64.3980    20.0840 h1         1 L2G       0.057367
     75 H271         7.7510    54.5700    12.1230 h1         1 L2G       0.059700
     76 H272         8.1850    54.6170    10.4100 h1         1 L2G       0.059700
     77 H281         4.4400    53.0630    11.3470 h1         1 L2G       0.059700
     78 H282         5.4270    53.6120    12.7150 h1         1 L2G       0.059700
     79 H29         -5.8960    66.5300    20.4250 ha         1 L2G       0.117000
     80 H30         -7.0840    67.1050    15.5910 ha         1 L2G       0.115000
     81 H31         -8.0420    67.5460    19.7560 ha         1 L2G       0.112000
     82 H32         -8.6350    67.8300    17.3800 ha         1 L2G       0.113000
     83 H341         7.9120    53.4720     8.5560 hc         1 L2G       0.060033
     84 H342         7.7230    51.7080     8.5230 hc         1 L2G       0.060033
     85 H343         8.6560    52.4880     9.8150 hc         1 L2G       0.060033
@<TRIPOS>BOND
     1     1     2 1   
     2     1     3 1   
     3     1     4 2   
     4     2     5 ar  
     5     2     6 ar  
     6     3     7 ar  
     7     3     8 ar  
     8     4     9 1   
     9     5     9 1   
    10     5    10 ar  
    11     6    11 ar  
    12     6    12 1   
    13     7    13 ar  
    14     7    47 1   
    15     8    14 ar  
    16     8    48 1   
    17     9    15 1   
    18    10    16 ar  
    19    11    16 ar  
    20    12    49 1   
    21    12    50 1   
    22    13    17 ar  
    23    13    18 1   
    24    14    17 ar  
    25    14    51 1   
    26    15    19 1   
    27    15    20 1   
    28    15    52 1   
    29    16    53 1   
    30    17    21 1   
    31    18    22 1   
    32    19    23 1   
    33    19    54 1   
    34    19    55 1   
    35    20    24 1   
    36    20    56 1   
    37    20    57 1   
    38    21    25 1   
    39    21    58 1   
    40    22    59 1   
    41    22    60 1   
    42    22    61 1   
    43    23    26 1   
    44    23    62 1   
    45    23    63 1   
    46    24    26 1   
    47    24    64 1   
    48    24    65 1   
    49    25    27 1   
    50    25    28 2   
    51    26    29 1   
    52    26    66 1   
    53    27    30 1   
    54    27    31 2   
    55    29    32 1   
    56    29    33 1   
    57    30    34 1   
    58    30    35 1   
    59    31    36 1   
    60    31    67 1   
    61    32    37 1   
    62    32    68 1   
    63    32    69 1   
    64    33    38 1   
    65    33    70 1   
    66    33    71 1   
    67    34    36 ar  
    68    34    39 ar  
    69    35    72 1   
    70    35    73 1   
    71    35    74 1   
    72    36    40 ar  
    73    37    41 1   
    74    37    75 1   
    75    37    76 1   
    76    38    41 1   
    77    38    77 1   
    78    38    78 1   
    79    39    42 ar  
    80    39    79 1   
    81    40    43 ar  
    82    40    80 1   
    83    41    44 1   
    84    42    43 ar  
    85    42    81 1   
    86    43    82 1   
    87    44    45 1   
    88    44    46 2   
    89    45    83 1   
    90    45    84 1   
    91    45    85 1   
@<TRIPOS>SUBSTRUCTURE
     1 L2G         1 TEMP              0 ****  ****    0 ROOT
