@<TRIPOS>MOLECULE
L2G
   85    91     1     0     0
SMALL
No Charge or Current Charge


@<TRIPOS>ATOM
      1 C1           2.7440    63.0630    13.0410 cc         1 L2G       0.440500
      2 C2           3.6820    63.8260    12.2500 ca         1 L2G      -0.380900
      3 C3           1.6190    63.6120    13.8090 ca         1 L2G      -0.096900
      4 N1           3.0120    61.7530    13.0030 nd         1 L2G      -0.516100
      5 C4           4.5240    62.9190    11.6710 ca         1 L2G       0.165500
      6 C5           3.9190    65.1850    12.0700 ca         1 L2G       0.453900
      7 C6           0.7050    64.5070    13.2170 ca         1 L2G      -0.168000
      8 C7           1.3760    63.1600    15.1200 ca         1 L2G      -0.082000
      9 N2           4.0980    61.6870    12.1330 na         1 L2G      -0.030100
     10 N3           5.5490    63.3020    10.8850 nb         1 L2G      -0.236000
     11 N4           4.9270    65.6050    11.2930 nb         1 L2G      -0.310000
     12 N5           3.2140    66.1600    12.6780 nv         1 L2G      -1.075900
     13 C8          -0.4030    64.9930    13.9460 ca         1 L2G       0.080100
     14 C9           0.2760    63.6380    15.8520 ca         1 L2G      -0.112000
     15 C10          4.7690    60.4110    11.7710 c6         1 L2G       0.109300
     16 C11          5.6890    64.6390    10.7240 ca         1 L2G       0.194900
     17 C12         -0.6180    64.5660    15.2740 ca         1 L2G      -0.033000
     18 O1          -1.3060    65.8850    13.3950 os         1 L2G      -0.373100
     19 C13          5.4370    59.7580    13.0110 c6         1 L2G      -0.086400
     20 C14          3.7800    59.4240    11.0930 c6         1 L2G      -0.086400
     21 N6          -1.7520    65.0920    15.9580 ns         1 L2G      -0.131000
     22 C15         -1.1720    66.3920    12.0530 c3         1 L2G       0.155900
     23 C16          6.1400    58.4310    12.6290 c6         1 L2G      -0.086400
     24 C17          4.4800    58.0920    10.7190 c6         1 L2G      -0.086400
     25 C18         -2.2440    64.9230    17.2440 c          1 L2G       0.640300
     26 C19          5.1440    57.4340    11.9690 c6         1 L2G       0.186500
     27 C20         -3.4980    65.6920    17.5040 cc         1 L2G      -0.139300
     28 O2          -1.7090    64.2140    18.0910 o          1 L2G      -0.593100
     29 N7           5.7790    56.1020    11.7070 n3         1 L2G      -0.736600
     30 N8          -4.2910    65.7870    18.6760 na         1 L2G      -0.062700
     31 C21         -4.1710    66.5020    16.5840 cd         1 L2G      -0.194200
     32 C22          6.8510    56.1090    10.6710 c6         1 L2G       0.154300
     33 C23          4.7830    55.0480    11.3740 c6         1 L2G       0.154300
     34 C24         -5.3980    66.6030    18.4570 ca         1 L2G      -0.033200
     35 C25         -4.0480    65.1480    19.9840 c3         1 L2G       0.067900
     36 C26         -5.3540    67.0700    17.1730 ca         1 L2G      -0.110800
     37 C27          7.5720    54.7370    10.5610 c6         1 L2G       0.099000
     38 C28          5.4280    53.6380    11.3070 c6         1 L2G       0.099000
     39 C29         -6.4510    66.9560    19.3190 ca         1 L2G      -0.127000
     40 C30         -6.3320    67.9220    16.6450 ca         1 L2G      -0.054000
     41 N9           6.6680    53.5430    10.4750 n          1 L2G      -0.418800
     42 C31         -7.4560    67.8140    18.8220 ca         1 L2G      -0.084000
     43 C32         -7.3960    68.2960    17.4910 ca         1 L2G      -0.141000
     44 C33          7.1770    52.2700    10.1340 c          1 L2G       0.601100
     45 C34          8.4650    52.1840     9.3110 c3         1 L2G      -0.172100
     46 O3           6.5730    51.2490    10.4350 o          1 L2G      -0.616100
     47 H6           0.8640    64.8020    12.1840 ha         1 L2G       0.126000
     48 H7           2.0500    62.4400    15.5790 ha         1 L2G       0.132000
     49 H5N1         3.6040    67.0980    12.6890 hn         1 L2G       0.504000
     50 H5N2         2.5880    65.9090    13.4370 hn         1 L2G       0.504000
     51 H9           0.1370    63.2690    16.8630 ha         1 L2G       0.156000
     52 H10          5.5620    60.6390    11.0440 h1         1 L2G       0.083700
     53 H11          6.5100    64.9710    10.0910 h5         1 L2G       0.047100
     54 H131         4.6840    59.5660    13.7880 hc         1 L2G       0.058950
     55 H132         6.1680    60.4520    13.4490 hc         1 L2G       0.058950
     56 H141         3.3550    59.8850    10.1910 hc         1 L2G       0.058950
     57 H142         2.9350    59.2160    11.7640 hc         1 L2G       0.058950
     58 HA          -2.3050    65.7130    15.3840 hn         1 L2G       0.176000
     59 H151        -1.2110    65.5750    11.3210 h1         1 L2G       0.045033
     60 H152        -0.2240    66.9310    11.9320 h1         1 L2G       0.045033
     61 H153        -1.9890    67.0880    11.8270 h1         1 L2G       0.045033
     62 H161         6.5800    57.9760    13.5270 hc         1 L2G       0.048450
     63 H162         6.9740    58.6560    11.9510 hc         1 L2G       0.048450
     64 H171         5.2320    58.2880     9.9430 hc         1 L2G       0.048450
     65 H172         3.7380    57.4160    10.2740 hc         1 L2G       0.048450
     66 H19          4.3410    57.2780    12.7070 h1         1 L2G       0.059700
     67 H21         -3.8650    66.6830    15.5560 ha         1 L2G       0.207000
     68 H221         7.6130    56.8710    10.8870 h1         1 L2G       0.040950
     69 H222         6.4270    56.3490     9.6850 h1         1 L2G       0.040950
     70 H231         4.3160    55.2540    10.4000 h1         1 L2G       0.040950
     71 H232         3.9770    55.0280    12.1210 h1         1 L2G       0.040950
     72 H251        -4.4220    65.7860    20.7930 h1         1 L2G       0.057367
     73 H252        -2.9730    64.9990    20.1380 h1         1 L2G       0.057367
     74 H253        -4.5590    64.1790    20.0180 h1         1 L2G       0.057367
     75 H271         8.2170    54.6140    11.4420 h1         1 L2G       0.059700
     76 H272         8.2290    54.7800     9.6830 h1         1 L2G       0.059700
     77 H281         4.6750    52.9340    10.9260 h1         1 L2G       0.059700
     78 H282         5.6760    53.3220    12.3300 h1         1 L2G       0.059700
     79 H29         -6.5010    66.5840    20.3390 ha         1 L2G       0.117000
     80 H30         -6.2740    68.2800    15.6190 ha         1 L2G       0.115000
     81 H31         -8.2840    68.1060    19.4650 ha         1 L2G       0.112000
     82 H32         -8.1770    68.9560    17.1190 ha         1 L2G       0.113000
     83 H341         8.3830    52.8410     8.4390 hc         1 L2G       0.060033
     84 H342         8.7080    51.1560     9.0190 hc         1 L2G       0.060033
     85 H343         9.2870    52.6350     9.8790 hc         1 L2G       0.060033
@<TRIPOS>BOND
     1     1     2 1   
     2     1     3 1   
     3     1     4 2   
     4     2     5 ar  
     5     2     6 ar  
     6     3     7 ar  
     7     3     8 ar  
     8     4     9 1   
     9     5     9 1   
    10     5    10 ar  
    11     6    11 ar  
    12     6    12 1   
    13     7    13 ar  
    14     7    47 1   
    15     8    14 ar  
    16     8    48 1   
    17     9    15 1   
    18    10    16 ar  
    19    11    16 ar  
    20    12    49 1   
    21    12    50 1   
    22    13    17 ar  
    23    13    18 1   
    24    14    17 ar  
    25    14    51 1   
    26    15    19 1   
    27    15    20 1   
    28    15    52 1   
    29    16    53 1   
    30    17    21 1   
    31    18    22 1   
    32    19    23 1   
    33    19    54 1   
    34    19    55 1   
    35    20    24 1   
    36    20    56 1   
    37    20    57 1   
    38    21    25 1   
    39    21    58 1   
    40    22    59 1   
    41    22    60 1   
    42    22    61 1   
    43    23    26 1   
    44    23    62 1   
    45    23    63 1   
    46    24    26 1   
    47    24    64 1   
    48    24    65 1   
    49    25    27 1   
    50    25    28 2   
    51    26    29 1   
    52    26    66 1   
    53    27    30 1   
    54    27    31 2   
    55    29    32 1   
    56    29    33 1   
    57    30    34 1   
    58    30    35 1   
    59    31    36 1   
    60    31    67 1   
    61    32    37 1   
    62    32    68 1   
    63    32    69 1   
    64    33    38 1   
    65    33    70 1   
    66    33    71 1   
    67    34    36 ar  
    68    34    39 ar  
    69    35    72 1   
    70    35    73 1   
    71    35    74 1   
    72    36    40 ar  
    73    37    41 1   
    74    37    75 1   
    75    37    76 1   
    76    38    41 1   
    77    38    77 1   
    78    38    78 1   
    79    39    42 ar  
    80    39    79 1   
    81    40    43 ar  
    82    40    80 1   
    83    41    44 1   
    84    42    43 ar  
    85    42    81 1   
    86    43    82 1   
    87    44    45 1   
    88    44    46 2   
    89    45    83 1   
    90    45    84 1   
    91    45    85 1   
@<TRIPOS>SUBSTRUCTURE
     1 L2G         1 TEMP              0 ****  ****    0 ROOT
