@<TRIPOS>MOLECULE
L2H
   84    90     1     0     0
SMALL
abcg2


@<TRIPOS>ATOM
      1 C32          4.4970    -0.9920    -0.6150 cc         1 L2H       0.428300
      2 C1           4.5890     0.6550     4.5570 c3         1 L2H       0.148800
      3 C29          3.1950    -2.6460    -0.7340 cd         1 L2H       0.189000
      4 C28          1.9360    -3.3380    -0.8520 cd         1 L2H       0.427000
      5 C2           5.5550     0.6590     3.3820 c3         1 L2H      -0.077400
      6 C5           5.1520     0.3440    -0.5010 c3         1 L2H       0.105400
      7 C30          4.4530    -3.1490    -0.6340 cc         1 L2H       0.163300
      8 C25         -0.0780    -3.9360    -0.9970 cc         1 L2H       0.184000
      9 C24         -1.5090    -3.7790    -1.0520 cc         1 L2H       0.431000
     10 C20         -5.0580     0.2530     4.6530 c3         1 L2H       0.149800
     11 C26          0.6690    -5.0700    -1.0830 cd         1 L2H       0.164300
     12 C19         -5.9470     0.0710     3.4340 c3         1 L2H      -0.078400
     13 C22         -3.5100    -3.1080    -1.0450 cd         1 L2H       0.163500
     14 C18         -5.1870     0.2250     2.1220 c3         1 L2H      -0.077400
     15 C23         -3.5340    -4.4260    -1.3430 cc         1 L2H       0.173900
     16 C21         -4.6700    -2.2070    -0.9320 c          1 L2H       0.546600
     17 C4           5.8190     0.5180     0.8750 c3         1 L2H      -0.093400
     18 C6           4.4650     2.5900    -1.1700 c          1 L2H       0.546600
     19 C7           3.3030     3.4810    -1.3410 cc         1 L2H       0.164500
     20 C8           3.3160     4.7890    -1.6810 cd         1 L2H       0.176900
     21 C9           1.2990     4.1310    -1.3850 cd         1 L2H       0.425000
     22 C10         -0.1340     4.2770    -1.3330 cd         1 L2H       0.190000
     23 C31          5.0610    -4.4960    -0.6110 c3         1 L2H      -0.123400
     24 C11         -0.8850     5.3930    -1.4860 cc         1 L2H       0.143900
     25 C27          0.3990    -6.5120    -1.2580 c3         1 L2H      -0.123400
     26 C12         -2.1450     3.7010    -1.1220 cc         1 L2H       0.421000
     27 C13         -3.4010     3.0170    -0.9450 cc         1 L2H       0.193000
     28 C16         -5.3740     0.0740    -0.4400 c3         1 L2H       0.105400
     29 C14         -4.6550     3.5220    -0.9170 cd         1 L2H       0.141900
     30 C15         -4.7160     1.3950    -0.6630 cd         1 L2H       0.427300
     31 N9           5.3000     0.8180     5.8180 n8         1 L2H      -0.996200
     32 N10         -5.8190     0.0830     5.8830 n8         1 L2H      -0.997200
     33 N8           3.2490    -1.2650    -0.7150 nd         1 L2H      -0.626000
     34 N5          -4.3660    -0.9480    -0.5840 ns         1 L2H      -0.486900
     35 N7           0.7490    -2.8440    -0.8460 nc         1 L2H      -0.584000
     36 N3          -0.9600     3.2030    -1.0990 nd         1 L2H      -0.583000
     37 N6          -2.2050    -2.7120    -0.8610 nd         1 L2H      -0.624000
     38 N2           2.0010     3.0780    -1.1540 nc         1 L2H      -0.622000
     39 N1           4.1520     1.3480    -0.7730 ns         1 L2H      -0.486900
     40 N4          -3.4640     1.6500    -0.7770 nc         1 L2H      -0.627000
     41 O6          -2.2580    -4.8550    -1.3490 os         1 L2H      -0.262000
     42 O2           2.0340     5.2050    -1.7090 os         1 L2H      -0.260000
     43 O7           1.9580    -4.6730    -0.9950 os         1 L2H      -0.264000
     44 O8           5.2800    -2.0770    -0.5620 os         1 L2H      -0.254000
     45 O3          -2.1730     5.0230    -1.3510 os         1 L2H      -0.254000
     46 O4          -5.4950     2.4820    -0.7350 os         1 L2H      -0.245000
     47 O1           5.6040     2.9840    -1.3770 o          1 L2H      -0.614100
     48 O5          -5.8050    -2.6070    -1.1490 o          1 L2H      -0.615100
     49 HB2          3.8930     1.4910     4.4470 h1         1 L2H       0.028200
     50 HB1          3.9800    -0.2600     4.5130 h1         1 L2H       0.028200
     51 HC2          6.1200     1.5970     3.3850 hc         1 L2H       0.045700
     52 HC1          6.2880    -0.1450     3.5120 hc         1 L2H       0.045700
     53 HF           5.9310     0.4090    -1.2670 h1         1 L2H       0.091700
     54 HD2          4.2980    -0.4660     2.0530 hc         1 L2H       0.046200
     55 HD1          4.0960     1.2690     1.9260 hc         1 L2H       0.046200
     56 H1          -4.2690    -0.5040     4.6340 h1         1 L2H       0.028200
     57 H2          -4.5500     1.2260     4.5820 h1         1 L2H       0.028200
     58 H3          -6.4160    -0.9170     3.4760 hc         1 L2H       0.046200
     59 H4          -6.7630     0.8020     3.4670 hc         1 L2H       0.046200
     60 H7          -4.7270     1.2180     2.0880 hc         1 L2H       0.045700
     61 H6          -4.3650    -0.4970     2.0960 hc         1 L2H       0.045700
     62 HL          -4.3100    -5.1410    -1.5590 h4         1 L2H       0.082100
     63 HE1          6.5780    -0.2600     0.9910 hc         1 L2H       0.061700
     64 HE2          6.3580     1.4680     0.8650 hc         1 L2H       0.061700
     65 HH           4.0850     5.5050    -1.9140 h4         1 L2H       0.083100
     66 H8          -6.5920    -0.9480     0.9830 hc         1 L2H       0.061700
     67 H9          -6.8910     0.7710     0.9150 hc         1 L2H       0.061700
     68 HN3          5.3630    -4.8110    -1.6110 hc         1 L2H       0.065700
     69 HN2          5.9460    -4.5070     0.0250 hc         1 L2H       0.065700
     70 HN1          4.3590    -5.2310    -0.2290 hc         1 L2H       0.065700
     71 HI          -0.6740     6.4320    -1.6780 h4         1 L2H       0.078100
     72 HM1          0.4170    -6.7910    -2.3140 hc         1 L2H       0.065367
     73 HM3          1.1510    -7.1090    -0.7430 hc         1 L2H       0.065367
     74 HM2         -0.5760    -6.7780    -0.8600 hc         1 L2H       0.065367
     75 H5          -6.1240    -0.0650    -1.2240 h1         1 L2H       0.092700
     76 HJ          -5.0800     4.5080    -1.0050 h4         1 L2H       0.078100
     77 HA1          4.6330     0.8680     6.5780 hn         1 L2H       0.390500
     78 HA2          5.8520    -0.0110     5.9980 hn         1 L2H       0.390500
     79 HA3         -5.1990     0.1620     6.6790 hn         1 L2H       0.391000
     80 H10         -6.4770     0.8470     5.9760 hn         1 L2H       0.391000
     81 HK          -3.3980    -0.7080    -0.4270 hn         1 L2H       0.371500
     82 HG           3.1800     1.1190    -0.6190 hn         1 L2H       0.371500
     83 C3           4.8460     0.4820     2.0460 c3         1 L2H      -0.078400
     84 C17         -6.0940     0.0220     0.9170 c3         1 L2H      -0.092400
@<TRIPOS>BOND
     1     1     6 1   
     2     1    33 2   
     3     1    44 1   
     4     2     5 1   
     5     2    31 1   
     6     2    49 1   
     7     2    50 1   
     8     3     4 1   
     9     3     7 2   
    10     3    33 1   
    11     4    35 2   
    12     4    43 1   
    13     5    51 1   
    14     5    52 1   
    15     5    83 1   
    16     6    17 1   
    17     6    39 1   
    18     6    53 1   
    19     7    23 1   
    20     7    44 1   
    21     8     9 1   
    22     8    11 2   
    23     8    35 1   
    24     9    37 2   
    25     9    41 1   
    26    10    12 1   
    27    10    32 1   
    28    10    56 1   
    29    10    57 1   
    30    11    25 1   
    31    11    43 1   
    32    12    14 1   
    33    12    58 1   
    34    12    59 1   
    35    13    15 2   
    36    13    16 1   
    37    13    37 1   
    38    14    60 1   
    39    14    61 1   
    40    14    84 1   
    41    15    41 1   
    42    15    62 1   
    43    16    34 1   
    44    16    48 2   
    45    17    63 1   
    46    17    64 1   
    47    17    83 1   
    48    18    19 1   
    49    18    39 1   
    50    18    47 2   
    51    19    20 2   
    52    19    38 1   
    53    20    42 1   
    54    20    65 1   
    55    21    22 1   
    56    21    38 2   
    57    21    42 1   
    58    22    24 2   
    59    22    36 1   
    60    23    68 1   
    61    23    69 1   
    62    23    70 1   
    63    24    45 1   
    64    24    71 1   
    65    25    72 1   
    66    25    73 1   
    67    25    74 1   
    68    26    27 1   
    69    26    36 2   
    70    26    45 1   
    71    27    29 2   
    72    27    40 1   
    73    28    30 1   
    74    28    34 1   
    75    28    75 1   
    76    28    84 1   
    77    29    46 1   
    78    29    76 1   
    79    30    40 2   
    80    30    46 1   
    81    31    77 1   
    82    31    78 1   
    83    32    79 1   
    84    32    80 1   
    85    34    81 1   
    86    39    82 1   
    87    54    83 1   
    88    55    83 1   
    89    66    84 1   
    90    67    84 1   
@<TRIPOS>SUBSTRUCTURE
     1 L2H         1 TEMP              0 ****  ****    0 ROOT
