@<TRIPOS>MOLECULE
L2H
   84    90     1     0     0
SMALL
No Charge or Current Charge


@<TRIPOS>ATOM
      1 C32          4.6330    -0.9630    -0.6280 cc         1 L2H       0.428300
      2 C1           5.2850     0.6380     4.6570 c3         1 L2H       0.148800
      3 C29          3.2180    -2.5510    -0.7440 cd         1 L2H       0.189000
      4 C28          1.9930    -3.3350    -0.8000 cd         1 L2H       0.427000
      5 C2           6.1330     0.6620     3.3680 c3         1 L2H      -0.077400
      6 C5           5.3140     0.3930    -0.5210 c3         1 L2H       0.105400
      7 C30          4.4780    -3.1000    -0.8160 cc         1 L2H       0.163300
      8 C25         -0.0630    -3.8810    -0.8550 cc         1 L2H       0.184000
      9 C24         -1.5150    -3.8190    -0.8630 cc         1 L2H       0.431000
     10 C20         -5.6540     0.2350     4.5770 c3         1 L2H       0.149800
     11 C26          0.6910    -5.0200    -0.9680 cd         1 L2H       0.164300
     12 C19         -6.4780     0.1020     3.2790 c3         1 L2H      -0.078400
     13 C22         -3.5710    -3.1860    -0.8470 cd         1 L2H       0.163500
     14 C18         -5.6010     0.1340     2.0070 c3         1 L2H      -0.077400
     15 C23         -3.5440    -4.5460    -0.9900 cc         1 L2H       0.173900
     16 C21         -4.8430    -2.3980    -0.8090 c          1 L2H       0.546600
     17 C4           6.1310     0.5450     0.7910 c3         1 L2H      -0.093400
     18 C6           4.6050     2.8080    -0.9670 c          1 L2H       0.546600
     19 C7           3.3500     3.6050    -1.0950 cc         1 L2H       0.164500
     20 C8           3.3090     4.9410    -1.3690 cd         1 L2H       0.176900
     21 C9           1.3140     4.2100    -1.1890 cd         1 L2H       0.425000
     22 C10         -0.1350     4.1870    -1.1990 cd         1 L2H       0.190000
     23 C31          4.9830    -4.5120    -0.9530 c3         1 L2H      -0.123400
     24 C11         -0.8820     5.3080    -1.4380 cc         1 L2H       0.143900
     25 C27          0.3180    -6.4720    -1.1190 c3         1 L2H      -0.123400
     26 C12         -2.1870     3.6130    -1.1300 cc         1 L2H       0.421000
     27 C13         -3.4410     2.8950    -1.0350 cc         1 L2H       0.193000
     28 C16         -5.5850     0.0390    -0.6030 c3         1 L2H       0.105400
     29 C14         -4.6710     3.4660    -1.1950 cd         1 L2H       0.141900
     30 C15         -4.9050     1.3870    -0.8130 cd         1 L2H       0.427300
     31 N9           6.1250     0.7760     5.8610 n8         1 L2H      -0.996200
     32 N10         -6.5170     0.1990     5.7720 n8         1 L2H      -0.997200
     33 N8           3.3230    -1.1750    -0.6210 nd         1 L2H      -0.626000
     34 N5          -4.5940    -1.0540    -0.6520 ns         1 L2H      -0.486900
     35 N7           0.7750    -2.8010    -0.7440 nc         1 L2H      -0.584000
     36 N3          -0.9680     3.1030    -0.9970 nd         1 L2H      -0.583000
     37 N6          -2.2630    -2.7240    -0.7620 nd         1 L2H      -0.624000
     38 N2           2.0660     3.1330    -0.9750 nc         1 L2H      -0.622000
     39 N1           4.3390     1.4860    -0.6860 ns         1 L2H      -0.486900
     40 N4          -3.5870     1.5550    -0.7870 nc         1 L2H      -0.627000
     41 O6          -2.2480    -4.9660    -1.0000 os         1 L2H      -0.262000
     42 O2           2.0130     5.3670    -1.4330 os         1 L2H      -0.260000
     43 O7           2.0150    -4.7020    -0.9340 os         1 L2H      -0.264000
     44 O8           5.3920    -2.0930    -0.7460 os         1 L2H      -0.254000
     45 O3          -2.2000     4.9590    -1.3970 os         1 L2H      -0.254000
     46 O4          -5.6420     2.5170    -1.0600 os         1 L2H      -0.245000
     47 O1           5.7430     3.2430    -1.1010 o          1 L2H      -0.614100
     48 O5          -5.9720    -2.8620    -0.9130 o          1 L2H      -0.615100
     49 HB2          4.5600     1.4630     4.6370 h1         1 L2H       0.028200
     50 HB1          4.7320    -0.3100     4.7190 h1         1 L2H       0.028200
     51 HC2          6.6960     1.6030     3.3240 hc         1 L2H       0.045700
     52 HC1          6.8680    -0.1530     3.4030 hc         1 L2H       0.045700
     53 HF           6.0210     0.4540    -1.3600 h1         1 L2H       0.091700
     54 HD2          4.7170    -0.4190     2.1370 hc         1 L2H       0.046200
     55 HD1          4.5460     1.3350     2.0580 hc         1 L2H       0.046200
     56 H1          -4.9300    -0.5890     4.6420 h1         1 L2H       0.028200
     57 H2          -5.1010     1.1850     4.5690 h1         1 L2H       0.028200
     58 H3          -7.0410    -0.8400     3.3040 hc         1 L2H       0.046200
     59 H4          -7.2120     0.9160     3.2310 hc         1 L2H       0.046200
     60 H7          -5.0360     1.0740     1.9880 hc         1 L2H       0.045700
     61 H6          -4.8660    -0.6790     2.0620 hc         1 L2H       0.045700
     62 HL          -4.3260    -5.2860    -1.0930 h4         1 L2H       0.082100
     63 HE1          6.8760    -0.2590     0.8360 hc         1 L2H       0.061700
     64 HE2          6.6980     1.4830     0.7540 hc         1 L2H       0.061700
     65 HH           4.0960     5.6640    -1.5360 h4         1 L2H       0.083100
     66 H8          -6.9930    -0.9400     0.7340 hc         1 L2H       0.061700
     67 H9          -7.1710     0.8030     0.6640 hc         1 L2H       0.061700
     68 HN3          4.6230    -4.9670    -1.8840 hc         1 L2H       0.065700
     69 HN2          6.0790    -4.5390    -0.9680 hc         1 L2H       0.065700
     70 HN1          4.6440    -5.1310    -0.1140 hc         1 L2H       0.065700
     71 HI          -0.6230     6.3370    -1.6430 h4         1 L2H       0.078100
     72 HM1         -0.2610    -6.6360    -2.0350 hc         1 L2H       0.065367
     73 HM3          1.2100    -7.1080    -1.1710 hc         1 L2H       0.065367
     74 HM2         -0.2840    -6.8140    -0.2690 hc         1 L2H       0.065367
     75 H5          -6.2730    -0.1010    -1.4480 h1         1 L2H       0.092700
     76 HJ          -4.9710     4.4840    -1.4040 h4         1 L2H       0.078100
     77 HA1          5.5310     0.6920     6.6940 hn         1 L2H       0.390500
     78 HA2          6.7490    -0.0370     5.9270 hn         1 L2H       0.390500
     79 HA3         -5.9390     0.3540     6.6070 hn         1 L2H       0.391000
     80 H10         -7.1410     1.0160     5.7570 hn         1 L2H       0.391000
     81 HK          -3.6110    -0.7960    -0.5990 hn         1 L2H       0.371500
     82 HG           3.3520     1.2500    -0.6210 hn         1 L2H       0.371500
     83 C3           5.2810     0.5210     2.0870 c3         1 L2H      -0.078400
     84 C17         -6.4260    -0.0010     0.7020 c3         1 L2H      -0.092400
@<TRIPOS>BOND
     1     1     6 1   
     2     1    33 2   
     3     1    44 1   
     4     2     5 1   
     5     2    31 1   
     6     2    49 1   
     7     2    50 1   
     8     3     4 1   
     9     3     7 2   
    10     3    33 1   
    11     4    35 2   
    12     4    43 1   
    13     5    51 1   
    14     5    52 1   
    15     5    83 1   
    16     6    17 1   
    17     6    39 1   
    18     6    53 1   
    19     7    23 1   
    20     7    44 1   
    21     8     9 1   
    22     8    11 2   
    23     8    35 1   
    24     9    37 2   
    25     9    41 1   
    26    10    12 1   
    27    10    32 1   
    28    10    56 1   
    29    10    57 1   
    30    11    25 1   
    31    11    43 1   
    32    12    14 1   
    33    12    58 1   
    34    12    59 1   
    35    13    15 2   
    36    13    16 1   
    37    13    37 1   
    38    14    60 1   
    39    14    61 1   
    40    14    84 1   
    41    15    41 1   
    42    15    62 1   
    43    16    34 1   
    44    16    48 2   
    45    17    63 1   
    46    17    64 1   
    47    17    83 1   
    48    18    19 1   
    49    18    39 1   
    50    18    47 2   
    51    19    20 2   
    52    19    38 1   
    53    20    42 1   
    54    20    65 1   
    55    21    22 1   
    56    21    38 2   
    57    21    42 1   
    58    22    24 2   
    59    22    36 1   
    60    23    68 1   
    61    23    69 1   
    62    23    70 1   
    63    24    45 1   
    64    24    71 1   
    65    25    72 1   
    66    25    73 1   
    67    25    74 1   
    68    26    27 1   
    69    26    36 2   
    70    26    45 1   
    71    27    29 2   
    72    27    40 1   
    73    28    30 1   
    74    28    34 1   
    75    28    75 1   
    76    28    84 1   
    77    29    46 1   
    78    29    76 1   
    79    30    40 2   
    80    30    46 1   
    81    31    77 1   
    82    31    78 1   
    83    32    79 1   
    84    32    80 1   
    85    34    81 1   
    86    39    82 1   
    87    54    83 1   
    88    55    83 1   
    89    66    84 1   
    90    67    84 1   
@<TRIPOS>SUBSTRUCTURE
     1 L2H         1 TEMP              0 ****  ****    0 ROOT
