@<TRIPOS>MOLECULE
L2I
   39    40     1     0     0
SMALL
No Charge or Current Charge


@<TRIPOS>ATOM
      1 N1           8.1660    -0.6100    20.9650 ns         1 L2I      -0.143000
      2 C4           9.2280    -1.5070    21.0020 c          1 L2I       0.610100
      3 C5           7.4080    -0.0770    19.8830 ca         1 L2I      -0.071000
      4 C6           6.3730     0.8270    20.1850 ca         1 L2I      -0.134000
      5 C7           5.6160     1.3620    19.1300 ca         1 L2I      -0.135000
      6 C8           5.9110     0.9820    17.8110 ca         1 L2I       0.306900
      7 C10         11.1960    -1.2830    22.5880 ca         1 L2I      -0.095300
      8 C13         13.8240    -0.2960    22.9110 ca         1 L2I      -0.103000
      9 C15         12.2850    -1.9300    21.9660 ca         1 L2I      -0.099000
     10 O            9.7160    -2.0200    20.0010 o          1 L2I      -0.573100
     11 C3           9.7620    -1.8060    22.4230 c3         1 L2I      -0.086400
     12 C14         13.5920    -1.4390    22.1290 ca         1 L2I      -0.108000
     13 C12         12.7460     0.3560    23.5310 ca         1 L2I      -0.108000
     14 C11         11.4380    -0.1340    23.3690 ca         1 L2I      -0.099000
     15 C2           9.6100    -3.3120    22.7780 c3         1 L2I      -0.063400
     16 C1          10.0540    -3.6510    24.2180 c3         1 L2I       0.154800
     17 N            9.8260    -5.0810    24.5010 n7         1 L2I      -0.858400
     18 C           10.2530    -5.5280    25.8410 c3         1 L2I       0.144100
     19 C9           7.6340    -0.4030    18.5200 ca         1 L2I       0.318900
     20 N2           6.9010     0.1140    17.5020 nb         1 L2I      -0.644000
     21 H1           7.8780    -0.2710    21.8740 hn         1 L2I       0.150000
     22 H2           6.1590     1.1100    21.2140 ha         1 L2I       0.114000
     23 H3           4.8090     2.0640    19.3250 ha         1 L2I       0.123000
     24 H4           5.3370     1.3840    16.9760 h4         1 L2I       0.022100
     25 H5          14.8360     0.0830    23.0370 ha         1 L2I       0.115000
     26 H6          12.1240    -2.8120    21.3510 ha         1 L2I       0.117500
     27 H7           9.1200    -1.2610    23.1270 hc         1 L2I       0.054700
     28 H8          14.4260    -1.9440    21.6450 ha         1 L2I       0.116000
     29 H9          12.9230     1.2430    24.1370 ha         1 L2I       0.116000
     30 H10         10.6140     0.3840    23.8560 ha         1 L2I       0.117500
     31 H11          8.5580    -3.5970    22.6550 hc         1 L2I       0.063700
     32 H12         10.1840    -3.9240    22.0720 hc         1 L2I       0.063700
     33 H13         11.1190    -3.4060    24.3340 h1         1 L2I       0.031700
     34 H14          9.4880    -3.0270    24.9240 h1         1 L2I       0.031700
     35 H15          8.8200    -5.2720    24.4060 hn         1 L2I       0.404000
     36 H17         10.0600    -6.6020    25.9700 h1         1 L2I       0.030700
     37 H18         11.3280    -5.3550    25.9880 h1         1 L2I       0.030700
     38 H19          9.7070    -4.9870    26.6270 h1         1 L2I       0.030700
     39 H20          8.4160    -1.0940    18.2150 h4         1 L2I       0.054100
@<TRIPOS>BOND
     1     1     2 1   
     2     1     3 1   
     3     1    21 1   
     4     2    10 2   
     5     2    11 1   
     6     3     4 ar  
     7     3    19 ar  
     8     4     5 ar  
     9     4    22 1   
    10     5     6 ar  
    11     5    23 1   
    12     6    20 ar  
    13     6    24 1   
    14     7     9 ar  
    15     7    11 1   
    16     7    14 ar  
    17     8    12 ar  
    18     8    13 ar  
    19     8    25 1   
    20     9    12 ar  
    21     9    26 1   
    22    11    15 1   
    23    11    27 1   
    24    12    28 1   
    25    13    14 ar  
    26    13    29 1   
    27    14    30 1   
    28    15    16 1   
    29    15    31 1   
    30    15    32 1   
    31    16    17 1   
    32    16    33 1   
    33    16    34 1   
    34    17    18 1   
    35    17    35 1   
    36    18    36 1   
    37    18    37 1   
    38    18    38 1   
    39    19    20 ar  
    40    19    39 1   
@<TRIPOS>SUBSTRUCTURE
     1 L2I         1 TEMP              0 ****  ****    0 ROOT
