@<TRIPOS>MOLECULE
L2I
   39    40     1     0     0
SMALL
abcg2


@<TRIPOS>ATOM
      1 N1           8.2180    -0.6250    21.0470 ns         1 L2I      -0.143000
      2 C4           8.8820    -1.8130    21.1540 c          1 L2I       0.610100
      3 C5           7.6000    -0.0510    19.9290 ca         1 L2I      -0.071000
      4 C6           6.9070     1.1480    20.1130 ca         1 L2I      -0.134000
      5 C7           6.2890     1.7450    19.0310 ca         1 L2I      -0.135000
      6 C8           6.3780     1.1300    17.7860 ca         1 L2I       0.306900
      7 C10         10.8470    -1.3470    22.5860 ca         1 L2I      -0.095300
      8 C13         13.3300    -0.0550    22.6780 ca         1 L2I      -0.103000
      9 C15         11.8940    -1.7610    21.7590 ca         1 L2I      -0.099000
     10 O            9.0090    -2.6050    20.2310 o          1 L2I      -0.573100
     11 C3           9.4970    -2.0440    22.5360 c3         1 L2I      -0.086400
     12 C14         13.1260    -1.1200    21.8050 ca         1 L2I      -0.108000
     13 C12         12.2930     0.3640    23.5050 ca         1 L2I      -0.108000
     14 C11         11.0590    -0.2790    23.4550 ca         1 L2I      -0.099000
     15 C2           9.5790    -3.5400    22.8570 c3         1 L2I      -0.063400
     16 C1          10.0860    -3.7990    24.2680 c3         1 L2I       0.154800
     17 N           10.1270    -5.2290    24.5580 n7         1 L2I      -0.858400
     18 C           10.5840    -5.5090    25.9170 c3         1 L2I       0.144100
     19 C9           7.6380    -0.5950    18.6390 ca         1 L2I       0.318900
     20 N2           7.0390    -0.0120    17.5960 nb         1 L2I      -0.644000
     21 H1           8.1630    -0.0740    21.8920 hn         1 L2I       0.150000
     22 H2           6.8610     1.5980    21.0980 ha         1 L2I       0.114000
     23 H3           5.7450     2.6730    19.1460 ha         1 L2I       0.123000
     24 H4           5.9050     1.5710    16.9160 h4         1 L2I       0.022100
     25 H5          14.2910     0.4430    22.7150 ha         1 L2I       0.115000
     26 H6          11.7430    -2.5860    21.0750 ha         1 L2I       0.117500
     27 H7           8.8520    -1.5660    23.2770 hc         1 L2I       0.054700
     28 H8          13.9290    -1.4520    21.1570 ha         1 L2I       0.116000
     29 H9          12.4420     1.1900    24.1880 ha         1 L2I       0.116000
     30 H10         10.2530     0.0490    24.1010 ha         1 L2I       0.117500
     31 H11          8.5820    -3.9760    22.7450 hc         1 L2I       0.063700
     32 H12         10.2270    -4.0400    22.1370 hc         1 L2I       0.063700
     33 H13         11.1000    -3.4050    24.3780 h1         1 L2I       0.031700
     34 H14          9.4580    -3.2510    24.9910 h1         1 L2I       0.031700
     35 H15          9.1940    -5.6130    24.4400 hn         1 L2I       0.404000
     36 H17         10.5270    -6.5800    26.1120 h1         1 L2I       0.030700
     37 H18         11.6270    -5.1990    26.0210 h1         1 L2I       0.030700
     38 H19         10.0010    -4.9840    26.6890 h1         1 L2I       0.030700
     39 H20          8.1620    -1.5180    18.4540 h4         1 L2I       0.054100
@<TRIPOS>BOND
     1     1     2 1   
     2     1     3 1   
     3     1    21 1   
     4     2    10 2   
     5     2    11 1   
     6     3     4 ar  
     7     3    19 ar  
     8     4     5 ar  
     9     4    22 1   
    10     5     6 ar  
    11     5    23 1   
    12     6    20 ar  
    13     6    24 1   
    14     7     9 ar  
    15     7    11 1   
    16     7    14 ar  
    17     8    12 ar  
    18     8    13 ar  
    19     8    25 1   
    20     9    12 ar  
    21     9    26 1   
    22    11    15 1   
    23    11    27 1   
    24    12    28 1   
    25    13    14 ar  
    26    13    29 1   
    27    14    30 1   
    28    15    16 1   
    29    15    31 1   
    30    15    32 1   
    31    16    17 1   
    32    16    33 1   
    33    16    34 1   
    34    17    18 1   
    35    17    35 1   
    36    18    36 1   
    37    18    37 1   
    38    18    38 1   
    39    19    20 ar  
    40    19    39 1   
@<TRIPOS>SUBSTRUCTURE
     1 L2I         1 TEMP              0 ****  ****    0 ROOT
