@<TRIPOS>MOLECULE
L2K
   27    29     1     0     0
SMALL
abcg2


@<TRIPOS>ATOM
      1 C4          37.9590    -5.8190    -3.3710 ce         1 L2K       0.361900
      2 C5          35.7030    -4.7450    -4.4760 c2         1 L2K       0.758100
      3 C6          35.0350    -2.8370    -5.2820 c5         1 L2K       0.106800
      4 N1          35.8120    -6.0340    -4.0480 nu         1 L2K      -0.579500
      5 C7          36.5520    -2.7360    -5.0290 c5         1 L2K       0.167800
      6 C8          38.0830    -4.4910    -4.0710 c6         1 L2K       0.150500
      7 N2          34.6890    -4.2400    -5.0650 n2         1 L2K      -0.668900
      8 C9          38.9830    -7.5330    -1.8850 ca         1 L2K      -0.099000
      9 C10         40.0810    -8.0710    -1.2600 ca         1 L2K       0.132000
     10 N3          36.7680    -3.9240    -4.2210 nh         1 L2K      -0.766600
     11 N           36.8820    -6.5030    -3.3870 n2         1 L2K      -0.369400
     12 C           41.3370    -7.5010    -1.4070 ca         1 L2K       0.143000
     13 C1          41.4970    -6.3800    -2.1890 ca         1 L2K      -0.132000
     14 C2          40.3910    -5.8260    -2.8210 ca         1 L2K      -0.092000
     15 C3          39.1250    -6.3910    -2.6810 ca         1 L2K      -0.099900
     16 F1          39.9520    -9.1580    -0.4930 f          1 L2K      -0.158000
     17 H1          34.7660    -2.5120    -6.2880 h1         1 L2K       0.063200
     18 H2          34.4840    -2.1990    -4.5840 h1         1 L2K       0.063200
     19 H3          37.1310    -2.7940    -5.9600 h1         1 L2K       0.051200
     20 H4          36.8450    -1.8290    -4.5020 h1         1 L2K       0.051200
     21 H5          38.5870    -4.6260    -5.0420 h1         1 L2K       0.057200
     22 H7          38.0150    -7.9980    -1.7500 ha         1 L2K       0.153000
     23 H8          42.4780    -5.9390    -2.3070 ha         1 L2K       0.138000
     24 H9          40.5460    -4.9510    -3.4370 ha         1 L2K       0.120000
     25 H10         34.9860    -6.6060    -3.9880 hn         1 L2K       0.547000
     26 H11         38.7010    -3.8070    -3.4870 h1         1 L2K       0.057200
     27 F           42.3800    -8.0540    -0.7830 f          1 L2K      -0.157000
@<TRIPOS>BOND
     1     1     6 1   
     2     1    11 2   
     3     1    15 1   
     4     2     4 1   
     5     2     7 2   
     6     2    10 1   
     7     3     5 1   
     8     3     7 1   
     9     3    17 1   
    10     3    18 1   
    11     4    11 1   
    12     4    25 1   
    13     5    10 1   
    14     5    19 1   
    15     5    20 1   
    16     6    10 1   
    17     6    21 1   
    18     6    26 1   
    19     8     9 ar  
    20     8    15 ar  
    21     8    22 1   
    22     9    12 ar  
    23     9    16 1   
    24    12    13 ar  
    25    12    27 1   
    26    13    14 ar  
    27    13    23 1   
    28    14    15 ar  
    29    14    24 1   
@<TRIPOS>SUBSTRUCTURE
     1 L2K         1 TEMP              0 ****  ****    0 ROOT
