@<TRIPOS>MOLECULE
L2K
   27    29     1     0     0
SMALL
No Charge or Current Charge


@<TRIPOS>ATOM
      1 C4          38.1280    -6.0400    -3.7720 ce         1 L2K       0.361900
      2 C5          35.6990    -4.7470    -4.5040 c2         1 L2K       0.758100
      3 C6          34.9330    -2.7520    -4.9980 c5         1 L2K       0.106800
      4 N1          35.8420    -6.1060    -4.2670 nu         1 L2K      -0.579500
      5 C7          36.4910    -2.6520    -4.9350 c5         1 L2K       0.167800
      6 C8          38.1410    -4.5830    -4.2880 c6         1 L2K       0.150500
      7 N2          34.6080    -4.2110    -4.8810 n2         1 L2K      -0.668900
      8 C9          38.9750    -7.4810    -1.8580 ca         1 L2K      -0.099000
      9 C10         40.0090    -7.9240    -1.0170 ca         1 L2K       0.132000
     10 N3          36.7940    -3.9490    -4.3150 nh         1 L2K      -0.766600
     11 N           37.0250    -6.7370    -3.8870 n2         1 L2K      -0.369400
     12 C           41.3060    -7.4010    -1.1570 ca         1 L2K       0.143000
     13 C1          41.5710    -6.4400    -2.1440 ca         1 L2K      -0.132000
     14 C2          40.5360    -5.9940    -2.9880 ca         1 L2K      -0.092000
     15 C3          39.2210    -6.4950    -2.8450 ca         1 L2K      -0.099900
     16 F1          39.7470    -8.8580    -0.0740 f          1 L2K      -0.158000
     17 H1          34.5510    -2.3340    -5.9400 h1         1 L2K       0.063200
     18 H2          34.4680    -2.1970    -4.1720 h1         1 L2K       0.063200
     19 H3          36.9180    -2.5870    -5.9460 h1         1 L2K       0.051200
     20 H4          36.8430    -1.7970    -4.3420 h1         1 L2K       0.051200
     21 H5          38.5450    -4.6060    -5.3100 h1         1 L2K       0.057200
     22 H7          37.9800    -7.9030    -1.7310 ha         1 L2K       0.153000
     23 H8          42.5780    -6.0460    -2.2590 ha         1 L2K       0.138000
     24 H9          40.7690    -5.2620    -3.7590 ha         1 L2K       0.120000
     25 H10         34.9570    -6.6030    -4.3900 hn         1 L2K       0.547000
     26 H11         38.8270    -3.9720    -3.6850 h1         1 L2K       0.057200
     27 F           42.3070    -7.8250    -0.3520 f          1 L2K      -0.157000
@<TRIPOS>BOND
     1     1     6 1   
     2     1    11 2   
     3     1    15 1   
     4     2     4 1   
     5     2     7 2   
     6     2    10 1   
     7     3     5 1   
     8     3     7 1   
     9     3    17 1   
    10     3    18 1   
    11     4    11 1   
    12     4    25 1   
    13     5    10 1   
    14     5    19 1   
    15     5    20 1   
    16     6    10 1   
    17     6    21 1   
    18     6    26 1   
    19     8     9 ar  
    20     8    15 ar  
    21     8    22 1   
    22     9    12 ar  
    23     9    16 1   
    24    12    13 ar  
    25    12    27 1   
    26    13    14 ar  
    27    13    23 1   
    28    14    15 ar  
    29    14    24 1   
@<TRIPOS>SUBSTRUCTURE
     1 L2K         1 TEMP              0 ****  ****    0 ROOT
