@<TRIPOS>MOLECULE
L2L
   10     9     1     0     0
SMALL
No Charge or Current Charge


@<TRIPOS>ATOM
      1 C02        108.6580   141.5110   104.8540 c3         1 L2L      -0.123200
      2 N01        108.1950   140.3850   103.9340 n8         1 L2L      -0.950200
      3 O04        108.0840   143.6720   103.4150 o          1 L2L      -0.695867
      4 O05        110.4240   142.8670   103.3890 o          1 L2L      -0.695867
      5 O06        109.5150   143.9630   105.4120 o          1 L2L      -0.695867
      6 S03        109.2330   143.1820   104.1960 s6         1 L2L       1.327600
      7 H3         107.8360   141.7690   105.5320 h2         1 L2L       0.045200
      8 H4         109.4960   141.1550   105.4630 h2         1 L2L       0.045200
      9 H1         107.8080   139.6100   104.4890 hn         1 L2L       0.372000
     10 H2         107.4000   140.7080   103.3670 hn         1 L2L       0.372000
@<TRIPOS>BOND
     1     1     2 1   
     2     1     6 1   
     3     1     7 1   
     4     1     8 1   
     5     2     9 1   
     6     2    10 1   
     7     3     6 1   
     8     4     6 1   
     9     5     6 1   
@<TRIPOS>SUBSTRUCTURE
     1 L2L         1 TEMP              0 ****  ****    0 ROOT
