@<TRIPOS>MOLECULE
L2L
   10     9     1     0     0
SMALL
bcc


@<TRIPOS>ATOM
      1 C02        108.6050   141.5230   104.9210 c3         1 L2L      -0.012400
      2 N01        108.2210   140.5820   103.8970 n8         1 L2L      -0.839800
      3 O04        108.0820   143.5490   103.3500 o          1 L2L      -0.695867
      4 O05        110.4040   142.7320   103.4040 o          1 L2L      -0.695867
      5 O06        109.4820   143.9330   105.3510 o          1 L2L      -0.695867
      6 S03        109.2000   143.0670   104.1880 s6         1 L2L       1.216800
      7 H3         107.8100   141.8030   105.6240 h2         1 L2L       0.045200
      8 H4         109.4290   141.1120   105.5060 h2         1 L2L       0.045200
      9 H1         108.0840   139.6700   104.3120 hn         1 L2L       0.316800
     10 H2         107.3310   140.8520   103.4990 hn         1 L2L       0.316800
@<TRIPOS>BOND
     1     1     2 1   
     2     1     6 1   
     3     1     7 1   
     4     1     8 1   
     5     2     9 1   
     6     2    10 1   
     7     3     6 1   
     8     4     6 1   
     9     5     6 1   
@<TRIPOS>SUBSTRUCTURE
     1 L2L         1 TEMP              0 ****  ****    0 ROOT
