@<TRIPOS>MOLECULE
L2N
   63    66     1     0     0
SMALL
bcc


@<TRIPOS>ATOM
      1 N1           4.6070   -13.8420   -23.4840 ns         1 L2N      -0.460100
      2 O2           4.8770   -14.4290   -26.0130 os         1 L2N      -0.335900
      3 O3           6.3830   -18.0670   -20.8990 o          1 L2N      -0.606800
      4 C4           2.5620    -8.5350   -24.7730 c3         1 L2N      -0.172400
      5 C5           1.7220    -9.3830   -25.7350 c3         1 L2N      -0.062400
      6 C6           1.6590   -10.8730   -25.4000 c3         1 L2N      -0.073400
      7 C7           2.9570   -11.4550   -24.8320 c3         1 L2N      -0.017100
      8 C8           3.1100   -11.1670   -23.3660 cc         1 L2N      -0.043300
      9 C9           3.5110   -12.0360   -22.3690 cd         1 L2N      -0.219900
     10 C10          4.0040   -13.4140   -22.3420 c          1 L2N       0.718700
     11 C11          4.9800   -15.1460   -23.8070 ca         1 L2N       0.021600
     12 C12          5.1140   -15.4490   -25.1810 ca         1 L2N       0.148100
     13 C13          5.0390   -14.6200   -27.4090 c3         1 L2N       0.128700
     14 C14          5.4700   -16.7280   -25.5840 ca         1 L2N      -0.219000
     15 C15          5.6890   -17.7240   -24.6430 ca         1 L2N      -0.009000
     16 N2           4.2830   -19.1930   -21.6510 n3         1 L2N      -0.708500
     17 N            3.3080   -11.4080   -21.1630 na         1 L2N      -0.114100
     18 C            2.8070   -10.1820   -21.3310 cd         1 L2N      -0.007600
     19 C1           2.5160    -9.2910   -20.1780 c3         1 L2N      -0.037800
     20 C16          5.5730   -17.4180   -23.3000 ca         1 L2N      -0.322500
     21 C17          3.4570   -18.2550   -20.8910 c6         1 L2N       0.187300
     22 C18          2.2930   -19.0090   -20.2760 c6         1 L2N       0.165300
     23 C2           2.6720    -9.9820   -22.7060 cc         1 L2N      -0.268600
     24 C20          2.3530   -20.6170   -22.0250 c6         1 L2N       0.165300
     25 C21          3.5210   -19.9030   -22.6790 c6         1 L2N       0.187300
     26 C22          5.2370   -16.1350   -22.8720 ca         1 L2N      -0.031000
     27 C3           2.2210    -8.7380   -23.3180 c          1 L2N       0.617700
     28 N3           1.5210   -19.6830   -21.2970 n3         1 L2N      -0.719600
     29 O1           3.8850   -14.1030   -21.3390 o          1 L2N      -0.608100
     30 S            5.7960   -18.6770   -22.0810 sy         1 L2N       1.296200
     31 H1           4.7550   -13.1590   -24.2100 hn         1 L2N       0.340500
     32 H2           3.6190    -8.7740   -24.9150 hc         1 L2N       0.061200
     33 H3           2.4360    -7.4800   -25.0200 hc         1 L2N       0.061200
     34 H4           2.1480    -9.2520   -26.7320 hc         1 L2N       0.043700
     35 H5           0.7070    -8.9830   -25.7810 hc         1 L2N       0.043700
     36 H6           0.8550   -11.0650   -24.6860 hc         1 L2N       0.047200
     37 H7           1.3920   -11.4190   -26.3060 hc         1 L2N       0.047200
     38 H8           2.9320   -12.5340   -24.9880 hc         1 L2N       0.051700
     39 H9           3.8170   -11.0850   -25.4020 hc         1 L2N       0.051700
     40 H10          4.8160   -13.6650   -27.8750 h1         1 L2N       0.048033
     41 H11          6.0620   -14.9100   -27.6560 h1         1 L2N       0.048033
     42 H12          4.3480   -15.3730   -27.7930 h1         1 L2N       0.048033
     43 H13          5.5740   -16.9700   -26.6320 ha         1 L2N       0.141000
     44 H14          5.9580   -18.7170   -24.9740 ha         1 L2N       0.158000
     45 H15          3.5230   -11.8240   -20.2690 hn         1 L2N       0.317700
     46 H16          1.4440    -9.1380   -20.0620 hc         1 L2N       0.061033
     47 H17          2.9010    -9.7170   -19.2530 hc         1 L2N       0.061033
     48 H18          2.9670    -8.3090   -20.3150 hc         1 L2N       0.061033
     49 H19          4.0460   -17.8070   -20.0940 h1         1 L2N       0.063450
     50 H20          3.0750   -17.4510   -21.5320 h1         1 L2N       0.063450
     51 H21          2.6790   -19.7080   -19.5150 h1         1 L2N       0.043450
     52 H22          1.6560   -18.2880   -19.7590 h1         1 L2N       0.043450
     53 H23         -0.2860   -19.5790   -20.2590 h1         1 L2N       0.032367
     54 H24         -0.2380   -20.7780   -21.5500 h1         1 L2N       0.032367
     55 H25          0.5770   -21.1050   -20.0120 h1         1 L2N       0.032367
     56 H26          1.7620   -21.0890   -22.8120 h1         1 L2N       0.043450
     57 H27          2.7370   -21.4240   -21.3780 h1         1 L2N       0.043450
     58 H28          3.1460   -19.2100   -23.4420 h1         1 L2N       0.063450
     59 H29          4.1560   -20.6410   -23.1650 h1         1 L2N       0.063450
     60 H30          5.1760   -15.9050   -21.8210 ha         1 L2N       0.183000
     61 O            1.6410    -7.8800   -22.6730 o          1 L2N      -0.547100
     62 C19          0.3460   -20.3210   -20.7500 c3         1 L2N       0.154100
     63 O4           6.4640   -19.8040   -22.7110 o          1 L2N      -0.606800
@<TRIPOS>BOND
     1     1    10 1   
     2     1    11 1   
     3     1    31 1   
     4     2    12 1   
     5     2    13 1   
     6     3    30 2   
     7     4     5 1   
     8     4    27 1   
     9     4    32 1   
    10     4    33 1   
    11     5     6 1   
    12     5    34 1   
    13     5    35 1   
    14     6     7 1   
    15     6    36 1   
    16     6    37 1   
    17     7     8 1   
    18     7    38 1   
    19     7    39 1   
    20     8     9 2   
    21     8    23 1   
    22     9    10 1   
    23     9    17 1   
    24    10    29 2   
    25    11    12 ar  
    26    11    26 ar  
    27    12    14 ar  
    28    13    40 1   
    29    13    41 1   
    30    13    42 1   
    31    14    15 ar  
    32    14    43 1   
    33    15    20 ar  
    34    15    44 1   
    35    16    21 1   
    36    16    25 1   
    37    16    30 1   
    38    17    18 1   
    39    17    45 1   
    40    18    19 1   
    41    18    23 2   
    42    19    46 1   
    43    19    47 1   
    44    19    48 1   
    45    20    26 ar  
    46    20    30 1   
    47    21    22 1   
    48    21    49 1   
    49    21    50 1   
    50    22    28 1   
    51    22    51 1   
    52    22    52 1   
    53    23    27 1   
    54    24    25 1   
    55    24    28 1   
    56    24    56 1   
    57    24    57 1   
    58    25    58 1   
    59    25    59 1   
    60    26    60 1   
    61    27    61 2   
    62    28    62 1   
    63    30    63 2   
    64    53    62 1   
    65    54    62 1   
    66    55    62 1   
@<TRIPOS>SUBSTRUCTURE
     1 L2N         1 TEMP              0 ****  ****    0 ROOT
