@<TRIPOS>MOLECULE
L2N
   63    66     1     0     0
SMALL
No Charge or Current Charge


@<TRIPOS>ATOM
      1 N1           4.2800   -13.8150   -23.2160 ns         1 L2N      -0.134000
      2 O2           4.4810   -14.4130   -25.8580 os         1 L2N      -0.359100
      3 O3           6.3680   -17.9950   -20.6040 o          1 L2N      -0.536000
      4 C4           2.7610    -8.6160   -25.0590 c3         1 L2N      -0.172400
      5 C5           1.7800    -9.5040   -25.8480 c3         1 L2N      -0.062400
      6 C6           1.5440   -10.8900   -25.2130 c3         1 L2N      -0.073400
      7 C7           2.8050   -11.5420   -24.5930 c3         1 L2N      -0.017100
      8 C8           3.1190   -11.0630   -23.1790 cc         1 L2N      -0.043300
      9 C9           3.5530   -11.7910   -22.0800 cd         1 L2N      -0.270600
     10 C10          4.0510   -13.1990   -21.9970 c          1 L2N       0.651700
     11 C11          4.7390   -15.1140   -23.5810 ca         1 L2N      -0.071000
     12 C12          4.8340   -15.4040   -24.9590 ca         1 L2N       0.148100
     13 C13          4.5300   -14.6070   -27.2830 c3         1 L2N       0.151900
     14 C14          5.2790   -16.6730   -25.3860 ca         1 L2N      -0.201000
     15 C15          5.6260   -17.6550   -24.4450 ca         1 L2N       0.009000
     16 N2           4.4790   -19.4070   -21.5460 n3         1 L2N      -0.708500
     17 N            3.4360   -10.9470   -20.9670 na         1 L2N      -0.063000
     18 C            3.0010    -9.6850   -21.3570 cd         1 L2N      -0.058300
     19 C1           2.8310    -8.5400   -20.3880 c3         1 L2N      -0.037800
     20 C16          5.5280   -17.3750   -23.0700 ca         1 L2N      -0.322500
     21 C17          3.4800   -18.5760   -20.8110 c6         1 L2N       0.187300
     22 C18          2.2050   -19.3890   -20.4280 c6         1 L2N       0.165300
     23 C2           2.8490    -9.7350   -22.7200 cc         1 L2N      -0.268600
     24 C20          2.5640   -20.8560   -22.3550 c6         1 L2N       0.165300
     25 C21          3.8370   -20.0390   -22.7360 c6         1 L2N       0.187300
     26 C22          5.0920   -16.1050   -22.6380 ca         1 L2N      -0.013000
     27 C3           2.4520    -8.5640   -23.5590 c          1 L2N       0.617700
     28 N3           1.5630   -20.0280   -21.6170 n3         1 L2N      -0.719600
     29 O1           4.2710   -13.7270   -20.9130 o          1 L2N      -0.608100
     30 S            5.9680   -18.6390   -21.8610 sy         1 L2N       1.154600
     31 H1           4.0920   -13.2220   -24.0120 hn         1 L2N       0.174000
     32 H2           3.7530    -9.0640   -25.1840 hc         1 L2N       0.061200
     33 H3           2.7580    -7.6040   -25.4790 hc         1 L2N       0.061200
     34 H4           2.1710    -9.6360   -26.8650 hc         1 L2N       0.043700
     35 H5           0.8160    -8.9890   -25.9480 hc         1 L2N       0.043700
     36 H6           0.7650   -10.8160   -24.4440 hc         1 L2N       0.047200
     37 H7           1.1420   -11.5540   -25.9880 hc         1 L2N       0.047200
     38 H8           2.5760   -12.6120   -24.5740 hc         1 L2N       0.051700
     39 H9           3.6710   -11.4230   -25.2560 hc         1 L2N       0.051700
     40 H10          4.2050   -13.6960   -27.8010 h1         1 L2N       0.048033
     41 H11          5.5520   -14.8380   -27.6100 h1         1 L2N       0.048033
     42 H12          3.8670   -15.4260   -27.5880 h1         1 L2N       0.048033
     43 H13          5.3620   -16.9180   -26.4400 ha         1 L2N       0.123000
     44 H14          5.9680   -18.6300   -24.7910 ha         1 L2N       0.140000
     45 H15          3.6600   -11.2150   -20.0130 hn         1 L2N       0.368000
     46 H16          1.7840    -8.2180   -20.3400 hc         1 L2N       0.061033
     47 H17          3.1370    -8.8210   -19.3730 hc         1 L2N       0.061033
     48 H18          3.4370    -7.6770   -20.6880 hc         1 L2N       0.061033
     49 H19          3.9120   -18.1710   -19.8850 h1         1 L2N       0.063450
     50 H20          3.1680   -17.7180   -21.4240 h1         1 L2N       0.063450
     51 H21          2.4900   -20.1570   -19.6940 h1         1 L2N       0.043450
     52 H22          1.4950   -18.7140   -19.9290 h1         1 L2N       0.043450
     53 H23         -0.3920   -20.1270   -20.7780 h1         1 L2N       0.032367
     54 H24         -0.1310   -21.1920   -22.1760 h1         1 L2N       0.032367
     55 H25          0.5690   -21.6150   -20.5940 h1         1 L2N       0.032367
     56 H26          2.1190   -21.2630   -23.2740 h1         1 L2N       0.043450
     57 H27          2.8730   -21.7140   -21.7400 h1         1 L2N       0.043450
     58 H28          3.5450   -19.2730   -23.4690 h1         1 L2N       0.063450
     59 H29          4.5380   -20.7180   -23.2430 h1         1 L2N       0.063450
     60 H30          5.0310   -15.9070   -21.5710 ha         1 L2N       0.165000
     61 O            1.9130    -7.5690   -23.0890 o          1 L2N      -0.547100
     62 C19          0.3390   -20.7810   -21.2720 c3         1 L2N       0.154100
     63 O4           6.8240   -19.6530   -22.4870 o          1 L2N      -0.536000
@<TRIPOS>BOND
     1     1    10 1   
     2     1    11 1   
     3     1    31 1   
     4     2    12 1   
     5     2    13 1   
     6     3    30 2   
     7     4     5 1   
     8     4    27 1   
     9     4    32 1   
    10     4    33 1   
    11     5     6 1   
    12     5    34 1   
    13     5    35 1   
    14     6     7 1   
    15     6    36 1   
    16     6    37 1   
    17     7     8 1   
    18     7    38 1   
    19     7    39 1   
    20     8     9 2   
    21     8    23 1   
    22     9    10 1   
    23     9    17 1   
    24    10    29 2   
    25    11    12 ar  
    26    11    26 ar  
    27    12    14 ar  
    28    13    40 1   
    29    13    41 1   
    30    13    42 1   
    31    14    15 ar  
    32    14    43 1   
    33    15    20 ar  
    34    15    44 1   
    35    16    21 1   
    36    16    25 1   
    37    16    30 1   
    38    17    18 1   
    39    17    45 1   
    40    18    19 1   
    41    18    23 2   
    42    19    46 1   
    43    19    47 1   
    44    19    48 1   
    45    20    26 ar  
    46    20    30 1   
    47    21    22 1   
    48    21    49 1   
    49    21    50 1   
    50    22    28 1   
    51    22    51 1   
    52    22    52 1   
    53    23    27 1   
    54    24    25 1   
    55    24    28 1   
    56    24    56 1   
    57    24    57 1   
    58    25    58 1   
    59    25    59 1   
    60    26    60 1   
    61    27    61 2   
    62    28    62 1   
    63    30    63 2   
    64    53    62 1   
    65    54    62 1   
    66    55    62 1   
@<TRIPOS>SUBSTRUCTURE
     1 L2N         1 TEMP              0 ****  ****    0 ROOT
