@<TRIPOS>MOLECULE
L2O
   25    24     1     0     0
SMALL
No Charge or Current Charge


@<TRIPOS>ATOM
      1 N            0.0150     0.0070     1.6670 n8         1 L2O      -0.907800
      2 C1           0.1110    -0.0960     0.1920 c3         1 L2O       0.167500
      3 C2           1.4540     0.5070    -0.3150 c3         1 L2O      -0.060400
      4 C3           2.7550    -0.1700     0.2110 c3         1 L2O      -0.056700
      5 C4           2.8650    -1.6590    -0.1990 c3         1 L2O      -0.082100
      6 C5           4.0060     0.6150    -0.2470 c3         1 L2O      -0.082100
      7 C6          -1.1200     0.5680    -0.4960 c3         1 L2O      -0.039900
      8 O1          -1.4120     1.8800     0.0840 oh         1 L2O      -0.650800
      9 C           -2.3540    -0.4050    -0.4760 c          1 L2O       0.893600
     10 O           -3.2910    -0.1280     0.2670 o          1 L2O      -0.825800
     11 OXT         -2.4000    -1.3210    -1.2890 o          1 L2O      -0.825800
     12 H           -0.1050     0.9990     1.8910 hn         1 L2O       0.341300
     13 H2          -0.8640    -0.4180     1.9740 hn         1 L2O       0.341300
     14 H3           0.1030    -1.1630    -0.0750 h1         1 L2O       0.064700
     15 H4           1.4640     0.4650    -1.4110 hc         1 L2O       0.032700
     16 H5           1.4790     1.5720    -0.0520 hc         1 L2O       0.032700
     17 H6           2.7410    -0.1300     1.3070 hc         1 L2O       0.057700
     18 H7           2.0550    -2.2520     0.2390 hc         1 L2O       0.021867
     19 H8           2.8250    -1.7680    -1.2890 hc         1 L2O       0.021867
     20 H9           3.8120    -2.0860     0.1530 hc         1 L2O       0.021867
     21 H10          3.9580     1.6560     0.0930 hc         1 L2O       0.021867
     22 H11          4.9180     0.1680     0.1680 hc         1 L2O       0.021867
     23 H12          4.0910     0.6130    -1.3400 hc         1 L2O       0.021867
     24 H14         -2.2860     1.7780     0.5320 ho         1 L2O       0.433000
     25 H15         -0.8740     0.6980    -1.5590 h1         1 L2O       0.033700
@<TRIPOS>BOND
     1     1     2 1   
     2     1    12 1   
     3     1    13 1   
     4     2     3 1   
     5     2     7 1   
     6     2    14 1   
     7     3     4 1   
     8     3    15 1   
     9     3    16 1   
    10     4     5 1   
    11     4     6 1   
    12     4    17 1   
    13     5    18 1   
    14     5    19 1   
    15     5    20 1   
    16     6    21 1   
    17     6    22 1   
    18     6    23 1   
    19     7     8 1   
    20     7     9 1   
    21     7    25 1   
    22     8    24 1   
    23     9    10 1   
    24     9    11 1   
@<TRIPOS>SUBSTRUCTURE
     1 L2O         1 TEMP              0 ****  ****    0 ROOT
