@<TRIPOS>MOLECULE
L2O
   25    24     1     0     0
SMALL
bcc


@<TRIPOS>ATOM
      1 N            0.0460    -0.2940     1.5220 n8         1 L2O      -0.907800
      2 C1           0.1310    -0.1770     0.0730 c3         1 L2O       0.167500
      3 C2           1.4360     0.5070    -0.3300 c3         1 L2O      -0.060400
      4 C3           2.7090    -0.1170     0.2420 c3         1 L2O      -0.056700
      5 C4           2.8520    -1.5860    -0.1410 c3         1 L2O      -0.082100
      6 C5           3.9310     0.6750    -0.2110 c3         1 L2O      -0.082100
      7 C6          -1.0710     0.5400    -0.5620 c3         1 L2O      -0.039900
      8 O1          -1.1910     1.8580    -0.0830 oh         1 L2O      -0.650800
      9 C           -2.3870    -0.2190    -0.2870 c          1 L2O       0.893600
     10 O           -3.2720     0.4500     0.2950 o          1 L2O      -0.825800
     11 OXT         -2.4600    -1.4020    -0.6560 o          1 L2O      -0.825800
     12 H           -0.1410     0.6190     1.9210 hn         1 L2O       0.341300
     13 H2          -0.7400    -0.8780     1.7790 hn         1 L2O       0.341300
     14 H3           0.1350    -1.1920    -0.3340 h1         1 L2O       0.064700
     15 H4           1.5010     0.5040    -1.4250 hc         1 L2O       0.032700
     16 H5           1.3970     1.5610    -0.0340 hc         1 L2O       0.032700
     17 H6           2.6480    -0.0570     1.3330 hc         1 L2O       0.057700
     18 H7           2.0390    -2.1930     0.2600 hc         1 L2O       0.021867
     19 H8           2.8560    -1.7080    -1.2270 hc         1 L2O       0.021867
     20 H9           3.7870    -2.0030     0.2390 hc         1 L2O       0.021867
     21 H10          3.8500     1.7280     0.0680 hc         1 L2O       0.021867
     22 H11          4.8480     0.2830     0.2320 hc         1 L2O       0.021867
     23 H12          4.0460     0.6320    -1.2980 hc         1 L2O       0.021867
     24 H14         -2.0850     1.8500     0.3080 ho         1 L2O       0.433000
     25 H15         -0.9180     0.5500    -1.6530 h1         1 L2O       0.033700
@<TRIPOS>BOND
     1     1     2 1   
     2     1    12 1   
     3     1    13 1   
     4     2     3 1   
     5     2     7 1   
     6     2    14 1   
     7     3     4 1   
     8     3    15 1   
     9     3    16 1   
    10     4     5 1   
    11     4     6 1   
    12     4    17 1   
    13     5    18 1   
    14     5    19 1   
    15     5    20 1   
    16     6    21 1   
    17     6    22 1   
    18     6    23 1   
    19     7     8 1   
    20     7     9 1   
    21     7    25 1   
    22     8    24 1   
    23     9    10 1   
    24     9    11 1   
@<TRIPOS>SUBSTRUCTURE
     1 L2O         1 TEMP              0 ****  ****    0 ROOT
