@<TRIPOS>MOLECULE
L2P
  134   133     1     0     0
SMALL
No Charge or Current Charge


@<TRIPOS>ATOM
      1 C1           5.1020    19.9450    -3.9170 c3         1 L2P       0.133600
      2 O1           5.1860    19.5280    -2.5410 os         1 L2P      -0.447000
      3 C2           4.2710    18.9030    -4.7270 c3         1 L2P       0.137300
      4 O2           2.9340    18.7490    -4.1710 os         1 L2P      -0.461000
      5 C3           4.9280    17.4970    -4.7470 c3         1 L2P       0.167600
      6 O3           3.9710    16.5340    -5.2220 oh         1 L2P      -0.721000
      7 C11          5.9750    20.3830    -1.7010 c3         1 L2P       0.160600
      8 C12          5.7770    19.9040    -0.2480 c3         1 L2P      -0.077400
      9 C13          6.6760    20.6130     0.8050 c3         1 L2P      -0.054700
     10 C14          6.4200    20.0340     2.2160 c3         1 L2P      -0.088100
     11 C15          6.5890    22.1680     0.7850 c3         1 L2P      -0.073400
     12 C16          5.1700    22.7630     0.9610 c3         1 L2P      -0.077400
     13 C17          5.1650    24.3110     0.9960 c3         1 L2P      -0.075400
     14 C18          3.7550    24.9600     1.1320 c3         1 L2P      -0.057700
     15 C19          2.8610    24.6620    -0.0970 c3         1 L2P      -0.089100
     16 C20          3.8180    26.5010     1.3650 c3         1 L2P      -0.071400
     17 C21          4.5300    26.9910     2.6530 c3         1 L2P      -0.072400
     18 C22          3.8630    26.5120     3.9690 c3         1 L2P      -0.071400
     19 C23          4.5000    27.0450     5.2850 c3         1 L2P      -0.057700
     20 C24          4.3020    28.5710     5.4530 c3         1 L2P      -0.088100
     21 C25          5.9950    26.6510     5.4730 c3         1 L2P      -0.070400
     22 C26          6.3250    25.1420     5.3400 c3         1 L2P      -0.074400
     23 C27          5.6260    24.2390     6.3920 c3         1 L2P      -0.070400
     24 C28          5.8910    22.7160     6.2480 c3         1 L2P      -0.058700
     25 C29          5.2830    22.1300     4.9540 c3         1 L2P      -0.088600
     26 C30          7.3850    22.3440     6.3940 c3         1 L2P      -0.088600
     27 C41          2.0440    19.8760    -4.2930 c3         1 L2P       0.164600
     28 C42          1.4100    20.1050    -2.9030 c3         1 L2P      -0.078400
     29 C43          0.2260    21.1150    -2.8920 c3         1 L2P      -0.054700
     30 C44          0.6400    22.5230    -3.3900 c3         1 L2P      -0.089100
     31 C45         -0.4920    21.1670    -1.5110 c3         1 L2P      -0.070400
     32 C46          0.3430    21.7750    -0.3590 c3         1 L2P      -0.075400
     33 C47         -0.3630    21.7320     1.0170 c3         1 L2P      -0.074400
     34 C48          0.4190    22.4370     2.1630 c3         1 L2P      -0.058700
     35 C49          1.7780    21.7500     2.4640 c3         1 L2P      -0.087100
     36 C50         -0.4650    22.5540     3.4390 c3         1 L2P      -0.071400
     37 C51          0.1420    23.3440     4.6330 c3         1 L2P      -0.069400
     38 C52          0.5840    24.8030     4.3270 c3         1 L2P      -0.069400
     39 C53         -0.5560    25.8070     3.9620 c3         1 L2P      -0.057700
     40 C54         -0.0990    26.7960     2.8620 c3         1 L2P      -0.090100
     41 C55         -1.1110    26.5960     5.1850 c3         1 L2P      -0.071400
     42 C56         -1.7190    25.7360     6.3170 c3         1 L2P      -0.073400
     43 C57         -2.3800    26.5850     7.4320 c3         1 L2P      -0.071400
     44 C58         -3.0570    25.7810     8.5780 c3         1 L2P      -0.058700
     45 C59         -4.2810    24.9640     8.0990 c3         1 L2P      -0.086600
     46 C60         -2.0600    24.9000     9.3690 c3         1 L2P      -0.086600
     47 H12          4.6410    20.9380    -3.9920 h1         1 L2P       0.024200
     48 H11          6.1060    20.0120    -4.3570 h1         1 L2P       0.024200
     49 H2           4.2020    19.2530    -5.7660 h1         1 L2P       0.043700
     50 H32          5.2510    17.2350    -3.7310 h1         1 L2P       0.055200
     51 H31          5.8220    17.5150    -5.3860 h1         1 L2P       0.055200
     52 H3O          3.1070    16.8950    -4.9000 ho         1 L2P       0.514000
     53 H112         7.0360    20.3190    -1.9740 h1         1 L2P       0.019200
     54 H111         5.6480    21.4270    -1.7960 h1         1 L2P       0.019200
     55 H122         4.7210    20.0280     0.0240 hc         1 L2P       0.053200
     56 H121         5.9810    18.8270    -0.2100 hc         1 L2P       0.053200
     57 H13          7.7150    20.3610     0.5530 hc         1 L2P       0.042700
     58 H143         7.0840    20.5010     2.9540 hc         1 L2P       0.034367
     59 H142         5.3820    20.1970     2.5300 hc         1 L2P       0.034367
     60 H141         6.6120    18.9540     2.2310 hc         1 L2P       0.034367
     61 H152         7.2400    22.5650     1.5750 hc         1 L2P       0.036200
     62 H151         7.0090    22.5370    -0.1580 hc         1 L2P       0.036200
     63 H162         4.7250    22.3880     1.8890 hc         1 L2P       0.041700
     64 H161         4.5410    22.4110     0.1380 hc         1 L2P       0.041700
     65 H172         5.6490    24.6950     0.0890 hc         1 L2P       0.037200
     66 H171         5.7930    24.6180     1.8380 hc         1 L2P       0.037200
     67 H18          3.2610    24.5060     1.9990 hc         1 L2P       0.045700
     68 H193         3.3070    25.0670    -1.0130 hc         1 L2P       0.031700
     69 H192         2.7170    23.5860    -0.2350 hc         1 L2P       0.031700
     70 H191         1.8680    25.1100     0.0270 hc         1 L2P       0.031700
     71 H202         2.7960    26.8990     1.3760 hc         1 L2P       0.036200
     72 H201         4.3130    26.9640     0.5020 hc         1 L2P       0.036200
     73 H212         5.5830    26.6930     2.6310 hc         1 L2P       0.038700
     74 H211         4.5280    28.0870     2.6330 hc         1 L2P       0.038700
     75 H222         2.8100    26.8120     3.9530 hc         1 L2P       0.037700
     76 H221         3.8580    25.4170     4.0000 hc         1 L2P       0.037700
     77 H23          3.9370    26.5830     6.1060 hc         1 L2P       0.042700
     78 H243         4.6180    28.8920     6.4530 hc         1 L2P       0.031700
     79 H242         4.8870    29.1340     4.7160 hc         1 L2P       0.031700
     80 H241         3.2450    28.8410     5.3320 hc         1 L2P       0.031700
     81 H252         6.3250    26.9890     6.4640 hc         1 L2P       0.035700
     82 H251         6.6060    27.2030     4.7480 hc         1 L2P       0.035700
     83 H262         6.0760    24.8030     4.3290 hc         1 L2P       0.039200
     84 H261         7.4110    25.0290     5.4380 hc         1 L2P       0.039200
     85 H272         5.9390    24.5600     7.3930 hc         1 L2P       0.036700
     86 H271         4.5420    24.3950     6.3460 hc         1 L2P       0.036700
     87 H28          5.3670    22.2340     7.0830 hc         1 L2P       0.041700
     88 H293         5.3470    21.0360     4.9620 hc         1 L2P       0.031700
     89 H292         4.2260    22.4070     4.8600 hc         1 L2P       0.031700
     90 H291         5.8150    22.4950     4.0670 hc         1 L2P       0.031700
     91 H303         7.5080    21.2550     6.4310 hc         1 L2P       0.031700
     92 H302         7.9750    22.7210     5.5500 hc         1 L2P       0.031700
     93 H301         7.8000    22.7620     7.3190 hc         1 L2P       0.031700
     94 H412         2.5690    20.7850    -4.6190 h1         1 L2P       0.020200
     95 H411         1.2580    19.6530    -5.0300 h1         1 L2P       0.020200
     96 H422         1.0510    19.1390    -2.5200 hc         1 L2P       0.053200
     97 H421         2.2010    20.4450    -2.2200 hc         1 L2P       0.053200
     98 H43         -0.5180    20.7370    -3.6050 hc         1 L2P       0.041700
     99 H443        -0.1930    23.2280    -3.2930 hc         1 L2P       0.033033
    100 H442         1.4890    22.9130    -2.8160 hc         1 L2P       0.033033
    101 H441         0.9280    22.4960    -4.4470 hc         1 L2P       0.033033
    102 H452        -1.4180    21.7460    -1.6160 hc         1 L2P       0.037700
    103 H451        -0.7980    20.1510    -1.2310 hc         1 L2P       0.037700
    104 H462         0.5640    22.8210    -0.5970 hc         1 L2P       0.040700
    105 H461         1.2970    21.2440    -0.2920 hc         1 L2P       0.040700
    106 H472        -0.5570    20.6890     1.2940 hc         1 L2P       0.035700
    107 H471        -1.3430    22.2140     0.9100 hc         1 L2P       0.035700
    108 H48          0.6350    23.4520     1.8120 hc         1 L2P       0.046700
    109 H493         1.6260    20.7320     2.8430 hc         1 L2P       0.032033
    110 H492         2.4050    21.6920     1.5690 hc         1 L2P       0.032033
    111 H491         2.3480    22.3140     3.2100 hc         1 L2P       0.032033
    112 H502        -0.7060    21.5420     3.7900 hc         1 L2P       0.036200
    113 H501        -1.4250    23.0070     3.1680 hc         1 L2P       0.036200
    114 H512        -0.5890    23.3400     5.4470 hc         1 L2P       0.037200
    115 H511         1.0080    22.7950     5.0210 hc         1 L2P       0.037200
    116 H522         1.1330    25.1900     5.1940 hc         1 L2P       0.035700
    117 H521         1.3240    24.7720     3.5200 hc         1 L2P       0.035700
    118 H53         -1.3920    25.2460     3.5300 hc         1 L2P       0.047700
    119 H543        -0.9260    27.4510     2.5610 hc         1 L2P       0.031367
    120 H542         0.7220    27.4300     3.2160 hc         1 L2P       0.031367
    121 H541         0.2430    26.2550     1.9700 hc         1 L2P       0.031367
    122 H552        -1.8840    27.2880     4.8280 hc         1 L2P       0.034200
    123 H551        -0.3090    27.2180     5.6040 hc         1 L2P       0.034200
    124 H562        -2.4570    25.0520     5.8830 hc         1 L2P       0.039700
    125 H561        -0.9270    25.1270     6.7650 hc         1 L2P       0.039700
    126 H572        -1.6200    27.2440     7.8700 hc         1 L2P       0.035200
    127 H571        -3.1330    27.2430     6.9780 hc         1 L2P       0.035200
    128 H58         -3.4410    26.5260     9.2870 hc         1 L2P       0.041700
    129 H593        -4.8150    24.5350     8.9550 hc         1 L2P       0.031367
    130 H592        -4.9830    25.6040     7.5480 hc         1 L2P       0.031367
    131 H591        -3.9790    24.1380     7.4430 hc         1 L2P       0.031367
    132 H603        -2.5470    24.4700    10.2530 hc         1 L2P       0.031367
    133 H602        -1.6860    24.0720     8.7560 hc         1 L2P       0.031367
    134 H601        -1.2030    25.4950     9.7100 hc         1 L2P       0.031367
@<TRIPOS>BOND
     1     1     2 1   
     2     1     3 1   
     3     1    47 1   
     4     1    48 1   
     5     2     7 1   
     6     3     4 1   
     7     3     5 1   
     8     3    49 1   
     9     4    27 1   
    10     5     6 1   
    11     5    50 1   
    12     5    51 1   
    13     6    52 1   
    14     7     8 1   
    15     7    53 1   
    16     7    54 1   
    17     8     9 1   
    18     8    55 1   
    19     8    56 1   
    20     9    10 1   
    21     9    11 1   
    22     9    57 1   
    23    10    58 1   
    24    10    59 1   
    25    10    60 1   
    26    11    12 1   
    27    11    61 1   
    28    11    62 1   
    29    12    13 1   
    30    12    63 1   
    31    12    64 1   
    32    13    14 1   
    33    13    65 1   
    34    13    66 1   
    35    14    15 1   
    36    14    16 1   
    37    14    67 1   
    38    15    68 1   
    39    15    69 1   
    40    15    70 1   
    41    16    17 1   
    42    16    71 1   
    43    16    72 1   
    44    17    18 1   
    45    17    73 1   
    46    17    74 1   
    47    18    19 1   
    48    18    75 1   
    49    18    76 1   
    50    19    20 1   
    51    19    21 1   
    52    19    77 1   
    53    20    78 1   
    54    20    79 1   
    55    20    80 1   
    56    21    22 1   
    57    21    81 1   
    58    21    82 1   
    59    22    23 1   
    60    22    83 1   
    61    22    84 1   
    62    23    24 1   
    63    23    85 1   
    64    23    86 1   
    65    24    25 1   
    66    24    26 1   
    67    24    87 1   
    68    25    88 1   
    69    25    89 1   
    70    25    90 1   
    71    26    91 1   
    72    26    92 1   
    73    26    93 1   
    74    27    28 1   
    75    27    94 1   
    76    27    95 1   
    77    28    29 1   
    78    28    96 1   
    79    28    97 1   
    80    29    30 1   
    81    29    31 1   
    82    29    98 1   
    83    30    99 1   
    84    30   100 1   
    85    30   101 1   
    86    31    32 1   
    87    31   102 1   
    88    31   103 1   
    89    32    33 1   
    90    32   104 1   
    91    32   105 1   
    92    33    34 1   
    93    33   106 1   
    94    33   107 1   
    95    34    35 1   
    96    34    36 1   
    97    34   108 1   
    98    35   109 1   
    99    35   110 1   
   100    35   111 1   
   101    36    37 1   
   102    36   112 1   
   103    36   113 1   
   104    37    38 1   
   105    37   114 1   
   106    37   115 1   
   107    38    39 1   
   108    38   116 1   
   109    38   117 1   
   110    39    40 1   
   111    39    41 1   
   112    39   118 1   
   113    40   119 1   
   114    40   120 1   
   115    40   121 1   
   116    41    42 1   
   117    41   122 1   
   118    41   123 1   
   119    42    43 1   
   120    42   124 1   
   121    42   125 1   
   122    43    44 1   
   123    43   126 1   
   124    43   127 1   
   125    44    45 1   
   126    44    46 1   
   127    44   128 1   
   128    45   129 1   
   129    45   130 1   
   130    45   131 1   
   131    46   132 1   
   132    46   133 1   
   133    46   134 1   
@<TRIPOS>SUBSTRUCTURE
     1 L2P         1 TEMP              0 ****  ****    0 ROOT
