@<TRIPOS>MOLECULE
L2P
  134   133     1     0     0
SMALL
bcc


@<TRIPOS>ATOM
      1 C1           4.7540    20.0340    -3.4060 c3         1 L2P       0.110400
      2 O1           5.1240    19.6480    -2.1110 os         1 L2P      -0.400600
      3 C2           3.4240    19.3920    -3.7690 c3         1 L2P       0.114100
      4 O2           2.4130    19.6580    -2.8240 os         1 L2P      -0.414600
      5 C3           3.5250    17.8770    -3.8740 c3         1 L2P       0.144400
      6 O3           2.3270    17.2880    -4.3240 oh         1 L2P      -0.598800
      7 C11          6.2520    20.3370    -1.6260 c3         1 L2P       0.137400
      8 C12          6.4760    19.9570    -0.1760 c3         1 L2P      -0.077400
      9 C13          7.7020    20.6200     0.4550 c3         1 L2P      -0.054700
     10 C14          7.8930    20.1130     1.8820 c3         1 L2P      -0.088100
     11 C15          7.6650    22.1530     0.3980 c3         1 L2P      -0.073400
     12 C16          6.4540    22.8100     1.0520 c3         1 L2P      -0.077400
     13 C17          6.5320    24.3310     0.9760 c3         1 L2P      -0.075400
     14 C18          5.4490    25.0820     1.7520 c3         1 L2P      -0.057700
     15 C19          4.0460    24.6600     1.3210 c3         1 L2P      -0.089100
     16 C20          5.5960    26.6010     1.5990 c3         1 L2P      -0.071400
     17 C21          6.9210    27.2070     2.0580 c3         1 L2P      -0.072400
     18 C22          7.1700    27.0670     3.5570 c3         1 L2P      -0.071400
     19 C23          8.4860    27.6660     4.0690 c3         1 L2P      -0.057700
     20 C24          8.5130    29.1860     3.9290 c3         1 L2P      -0.088100
     21 C25          9.7320    27.0530     3.4200 c3         1 L2P      -0.070400
     22 C26          9.8060    25.5280     3.4390 c3         1 L2P      -0.074400
     23 C27          9.8770    24.9260     4.8420 c3         1 L2P      -0.070400
     24 C28          9.7100    23.4040     4.9120 c3         1 L2P      -0.058700
     25 C29          8.2990    22.9740     4.5220 c3         1 L2P      -0.088600
     26 C30         10.7510    22.6570     4.0830 c3         1 L2P      -0.088600
     27 C41          1.9490    20.9880    -2.7840 c3         1 L2P       0.141400
     28 C42          0.8640    21.0910    -1.7290 c3         1 L2P      -0.078400
     29 C43          0.2930    22.5060    -1.5890 c3         1 L2P      -0.054700
     30 C44          1.3230    23.4940    -1.0430 c3         1 L2P      -0.089100
     31 C45         -0.9910    22.5140    -0.7510 c3         1 L2P      -0.070400
     32 C46         -0.8430    22.0300     0.6890 c3         1 L2P      -0.075400
     33 C47         -2.1510    22.1410     1.4630 c3         1 L2P      -0.074400
     34 C48         -2.0590    21.7870     2.9490 c3         1 L2P      -0.058700
     35 C49         -1.6060    20.3450     3.1620 c3         1 L2P      -0.087100
     36 C50         -3.4060    22.0560     3.6260 c3         1 L2P      -0.071400
     37 C51         -3.4380    21.8780     5.1430 c3         1 L2P      -0.069400
     38 C52         -2.3950    22.6880     5.9170 c3         1 L2P      -0.069400
     39 C53         -2.3420    24.2070     5.6940 c3         1 L2P      -0.057700
     40 C54         -0.9680    24.7240     6.1180 c3         1 L2P      -0.090100
     41 C55         -3.4210    25.0000     6.4390 c3         1 L2P      -0.071400
     42 C56         -4.8710    24.7390     6.0420 c3         1 L2P      -0.073400
     43 C57         -5.8170    25.7860     6.6200 c3         1 L2P      -0.071400
     44 C58         -7.3040    25.5800     6.3080 c3         1 L2P      -0.058700
     45 C59         -7.5920    25.6460     4.8110 c3         1 L2P      -0.086600
     46 C60         -7.8490    24.2860     6.9060 c3         1 L2P      -0.086600
     47 H12          4.6770    21.1280    -3.4790 h1         1 L2P       0.024200
     48 H11          5.5050    19.7320    -4.1530 h1         1 L2P       0.024200
     49 H2           3.1390    19.7880    -4.7580 h1         1 L2P       0.043700
     50 H32          3.8410    17.4600    -2.9090 h1         1 L2P       0.055200
     51 H31          4.2990    17.6280    -4.6030 h1         1 L2P       0.055200
     52 H3O          1.6340    17.5250    -3.7000 ho         1 L2P       0.415000
     53 H112         7.1450    20.0960    -2.2220 h1         1 L2P       0.019200
     54 H111         6.0960    21.4210    -1.7240 h1         1 L2P       0.019200
     55 H122         5.5800    20.2050     0.4020 hc         1 L2P       0.053200
     56 H121         6.5940    18.8710    -0.1100 hc         1 L2P       0.053200
     57 H13          8.5820    20.3050    -0.1200 hc         1 L2P       0.042700
     58 H143         8.7590    20.5800     2.3550 hc         1 L2P       0.034367
     59 H142         7.0230    20.3230     2.5070 hc         1 L2P       0.034367
     60 H141         8.0510    19.0330     1.8970 hc         1 L2P       0.034367
     61 H152         8.5750    22.5350     0.8750 hc         1 L2P       0.036200
     62 H151         7.7240    22.4810    -0.6450 hc         1 L2P       0.036200
     63 H162         6.3840    22.5040     2.1010 hc         1 L2P       0.041700
     64 H161         5.5350    22.4600     0.5740 hc         1 L2P       0.041700
     65 H172         6.5010    24.6430    -0.0760 hc         1 L2P       0.037200
     66 H171         7.5130    24.6370     1.3500 hc         1 L2P       0.037200
     67 H18          5.5600    24.8240     2.8130 hc         1 L2P       0.045700
     68 H193         3.8960    24.8290     0.2510 hc         1 L2P       0.031700
     69 H192         3.8560    23.6050     1.5150 hc         1 L2P       0.031700
     70 H191         3.2830    25.2300     1.8540 hc         1 L2P       0.031700
     71 H202         4.7800    27.0850     2.1480 hc         1 L2P       0.036200
     72 H201         5.4370    26.8550     0.5440 hc         1 L2P       0.036200
     73 H212         7.7500    26.7640     1.4970 hc         1 L2P       0.038700
     74 H211         6.9190    28.2670     1.7880 hc         1 L2P       0.038700
     75 H222         6.3430    27.5430     4.0960 hc         1 L2P       0.037700
     76 H221         7.1290    26.0100     3.8400 hc         1 L2P       0.037700
     77 H23          8.5250    27.4470     5.1420 hc         1 L2P       0.042700
     78 H243         9.4120    29.6050     4.3870 hc         1 L2P       0.031700
     79 H242         8.5080    29.4990     2.8830 hc         1 L2P       0.031700
     80 H241         7.6490    29.6440     4.4160 hc         1 L2P       0.031700
     81 H252        10.6160    27.4630     3.9210 hc         1 L2P       0.035700
     82 H251         9.8000    27.3900     2.3800 hc         1 L2P       0.035700
     83 H262         8.9510    25.1210     2.8920 hc         1 L2P       0.039200
     84 H261        10.6890    25.2190     2.8730 hc         1 L2P       0.039200
     85 H272        10.8380    25.2040     5.2890 hc         1 L2P       0.036700
     86 H271         9.1100    25.3750     5.4810 hc         1 L2P       0.036700
     87 H28          9.8610    23.1220     5.9600 hc         1 L2P       0.041700
     88 H293         8.1510    21.9040     4.6820 hc         1 L2P       0.031700
     89 H292         7.5420    23.5060     5.1010 hc         1 L2P       0.031700
     90 H291         8.1010    23.1680     3.4670 hc         1 L2P       0.031700
     91 H303        10.6780    21.5800     4.2440 hc         1 L2P       0.031700
     92 H302        10.6140    22.8310     3.0130 hc         1 L2P       0.031700
     93 H301        11.7660    22.9630     4.3410 hc         1 L2P       0.031700
     94 H412         2.7660    21.6800    -2.5470 h1         1 L2P       0.020200
     95 H411         1.5550    21.2880    -3.7660 h1         1 L2P       0.020200
     96 H422         0.0550    20.3990    -1.9840 hc         1 L2P       0.053200
     97 H421         1.2730    20.7580    -0.7710 hc         1 L2P       0.053200
     98 H43          0.0090    22.8470    -2.5920 hc         1 L2P       0.041700
     99 H443         0.8820    24.4840    -0.9120 hc         1 L2P       0.033033
    100 H442         1.7150    23.1780    -0.0740 hc         1 L2P       0.033033
    101 H441         2.1760    23.6070    -1.7120 hc         1 L2P       0.033033
    102 H452        -1.3900    23.5340    -0.7410 hc         1 L2P       0.037700
    103 H451        -1.7460    21.9000    -1.2530 hc         1 L2P       0.037700
    104 H462        -0.0720    22.6130     1.2050 hc         1 L2P       0.040700
    105 H461        -0.4950    20.9940     0.6930 hc         1 L2P       0.040700
    106 H472        -2.9100    21.5050     0.9900 hc         1 L2P       0.035700
    107 H471        -2.5230    23.1680     1.3720 hc         1 L2P       0.035700
    108 H48         -1.3080    22.4490     3.3990 hc         1 L2P       0.046700
    109 H493        -2.3000    19.6470     2.6850 hc         1 L2P       0.032033
    110 H492        -0.6160    20.1620     2.7460 hc         1 L2P       0.032033
    111 H491        -1.5570    20.0870     4.2210 hc         1 L2P       0.032033
    112 H502        -4.1600    21.3960     3.1820 hc         1 L2P       0.036200
    113 H501        -3.7280    23.0730     3.3770 hc         1 L2P       0.036200
    114 H512        -4.4440    22.1130     5.4920 hc         1 L2P       0.037200
    115 H511        -3.2880    20.8230     5.3910 hc         1 L2P       0.037200
    116 H522        -2.5230    22.4980     6.9900 hc         1 L2P       0.035700
    117 H521        -1.4090    22.2790     5.6690 hc         1 L2P       0.035700
    118 H53         -2.4540    24.4160     4.6230 hc         1 L2P       0.047700
    119 H543        -0.8790    25.8010     5.9650 hc         1 L2P       0.031367
    120 H542        -0.7880    24.5260     7.1780 hc         1 L2P       0.031367
    121 H541        -0.1690    24.2400     5.5530 hc         1 L2P       0.031367
    122 H552        -3.2140    26.0650     6.2820 hc         1 L2P       0.034200
    123 H551        -3.3050    24.8310     7.5160 hc         1 L2P       0.034200
    124 H562        -4.9500    24.7230     4.9490 hc         1 L2P       0.039700
    125 H561        -5.1780    23.7480     6.3830 hc         1 L2P       0.039700
    126 H572        -5.6860    25.8170     7.7080 hc         1 L2P       0.035200
    127 H571        -5.5170    26.7740     6.2540 hc         1 L2P       0.035200
    128 H58         -7.8380    26.4120     6.7810 hc         1 L2P       0.041700
    129 H593        -8.6670    25.6270     4.6190 hc         1 L2P       0.031367
    130 H592        -7.1940    26.5610     4.3660 hc         1 L2P       0.031367
    131 H591        -7.1530    24.8000     4.2780 hc         1 L2P       0.031367
    132 H603        -8.9280    24.2130     6.7620 hc         1 L2P       0.031367
    133 H602        -7.3990    23.4080     6.4390 hc         1 L2P       0.031367
    134 H601        -7.6540    24.2270     7.9790 hc         1 L2P       0.031367
@<TRIPOS>BOND
     1     1     2 1   
     2     1     3 1   
     3     1    47 1   
     4     1    48 1   
     5     2     7 1   
     6     3     4 1   
     7     3     5 1   
     8     3    49 1   
     9     4    27 1   
    10     5     6 1   
    11     5    50 1   
    12     5    51 1   
    13     6    52 1   
    14     7     8 1   
    15     7    53 1   
    16     7    54 1   
    17     8     9 1   
    18     8    55 1   
    19     8    56 1   
    20     9    10 1   
    21     9    11 1   
    22     9    57 1   
    23    10    58 1   
    24    10    59 1   
    25    10    60 1   
    26    11    12 1   
    27    11    61 1   
    28    11    62 1   
    29    12    13 1   
    30    12    63 1   
    31    12    64 1   
    32    13    14 1   
    33    13    65 1   
    34    13    66 1   
    35    14    15 1   
    36    14    16 1   
    37    14    67 1   
    38    15    68 1   
    39    15    69 1   
    40    15    70 1   
    41    16    17 1   
    42    16    71 1   
    43    16    72 1   
    44    17    18 1   
    45    17    73 1   
    46    17    74 1   
    47    18    19 1   
    48    18    75 1   
    49    18    76 1   
    50    19    20 1   
    51    19    21 1   
    52    19    77 1   
    53    20    78 1   
    54    20    79 1   
    55    20    80 1   
    56    21    22 1   
    57    21    81 1   
    58    21    82 1   
    59    22    23 1   
    60    22    83 1   
    61    22    84 1   
    62    23    24 1   
    63    23    85 1   
    64    23    86 1   
    65    24    25 1   
    66    24    26 1   
    67    24    87 1   
    68    25    88 1   
    69    25    89 1   
    70    25    90 1   
    71    26    91 1   
    72    26    92 1   
    73    26    93 1   
    74    27    28 1   
    75    27    94 1   
    76    27    95 1   
    77    28    29 1   
    78    28    96 1   
    79    28    97 1   
    80    29    30 1   
    81    29    31 1   
    82    29    98 1   
    83    30    99 1   
    84    30   100 1   
    85    30   101 1   
    86    31    32 1   
    87    31   102 1   
    88    31   103 1   
    89    32    33 1   
    90    32   104 1   
    91    32   105 1   
    92    33    34 1   
    93    33   106 1   
    94    33   107 1   
    95    34    35 1   
    96    34    36 1   
    97    34   108 1   
    98    35   109 1   
    99    35   110 1   
   100    35   111 1   
   101    36    37 1   
   102    36   112 1   
   103    36   113 1   
   104    37    38 1   
   105    37   114 1   
   106    37   115 1   
   107    38    39 1   
   108    38   116 1   
   109    38   117 1   
   110    39    40 1   
   111    39    41 1   
   112    39   118 1   
   113    40   119 1   
   114    40   120 1   
   115    40   121 1   
   116    41    42 1   
   117    41   122 1   
   118    41   123 1   
   119    42    43 1   
   120    42   124 1   
   121    42   125 1   
   122    43    44 1   
   123    43   126 1   
   124    43   127 1   
   125    44    45 1   
   126    44    46 1   
   127    44   128 1   
   128    45   129 1   
   129    45   130 1   
   130    45   131 1   
   131    46   132 1   
   132    46   133 1   
   133    46   134 1   
@<TRIPOS>SUBSTRUCTURE
     1 L2P         1 TEMP              0 ****  ****    0 ROOT
