@<TRIPOS>MOLECULE
L2Q
  104   109     1     0     0
SMALL
No Charge or Current Charge


@<TRIPOS>ATOM
      1 CAN         -3.4220     2.4690     0.0650 c6         1 L2Q      -0.040700
      2 CAR         -2.6220     1.3500    -0.6650 c6         1 L2Q      -0.071400
      3 CAQ         -3.5460     0.2230    -1.1830 c6         1 L2Q      -0.079400
      4 CAP         -4.6490     0.7760    -2.1150 c6         1 L2Q      -0.076400
      5 CAO         -5.4680     1.8850    -1.4160 c6         1 L2Q      -0.062400
      6 CAM         -4.5390     3.0130    -0.8850 c6         1 L2Q      -0.163700
      7 CAL         -5.2790     4.2150    -0.2590 c          1 L2Q       0.576100
      8 OAS         -6.4920     4.2430    -0.0950 o          1 L2Q      -0.514100
      9 CAK         -4.3750     5.3590     0.2110 c6         1 L2Q      -0.183400
     10 CAJ         -3.2720     4.8420     1.1640 c6         1 L2Q      -0.068400
     11 CAI         -2.4980     3.6270     0.5730 c6         1 L2Q      -0.131700
     12 CAG         -1.3520     3.1830     1.5270 c          1 L2Q       0.601100
     13 OAH         -1.6000     2.6220     2.5860 o          1 L2Q      -0.589100
     14 N           -0.0280     3.5380     1.1900 n          1 L2Q      -0.383800
     15 CAE          0.2470     4.9990     1.0460 c6         1 L2Q       0.096000
     16 CAD          1.7300     5.3840     0.9170 c6         1 L2Q      -0.108400
     17 CAC          2.3770     4.5970    -0.2250 c6         1 L2Q      -0.077400
     18 CB           2.2950     3.1000     0.1020 c6         1 L2Q      -0.092400
     19 CA           0.8380     2.5890     0.3700 c6         1 L2Q       0.040700
     20 C            0.8890     1.0850     0.8280 c          1 L2Q       0.625100
     21 O            0.0480     0.5580     1.5410 o          1 L2Q      -0.478000
     22 OAV          1.8760     0.3630     0.2010 os         1 L2Q      -0.443100
     23 CAW          1.8920    -1.0670     0.3490 c3         1 L2Q       0.227600
     24 CAY          3.3230    -1.5450     0.0110 c3         1 L2Q      -0.092400
     25 CAZ          4.3870    -1.0770     1.0290 c3         1 L2Q      -0.024100
     26 CBA          5.7800    -1.5700     0.6630 ca         1 L2Q      -0.077300
     27 CBF          6.5600    -0.8540    -0.2640 ca         1 L2Q      -0.168000
     28 CBB          6.2920    -2.7450     1.2390 ca         1 L2Q      -0.105000
     29 CBC          7.5750    -3.2050     0.8990 ca         1 L2Q      -0.168000
     30 CBD          8.3640    -2.4900    -0.0310 ca         1 L2Q       0.108100
     31 OBG          9.6330    -2.9150    -0.3900 os         1 L2Q      -0.322100
     32 CBH         10.2320    -4.1040     0.1530 c3         1 L2Q       0.145900
     33 CBE          7.8520    -1.3060    -0.6160 ca         1 L2Q       0.110100
     34 OBI          8.6420    -0.6220    -1.5270 os         1 L2Q      -0.323100
     35 CBJ          8.2050     0.5870    -2.1730 c3         1 L2Q       0.146900
     36 CAX          0.8190    -1.6590    -0.5740 ca         1 L2Q      -0.055300
     37 CBK         -0.3320    -2.2620    -0.0250 ca         1 L2Q      -0.126000
     38 CBO          0.9440    -1.5840    -1.9770 ca         1 L2Q      -0.125000
     39 CBN         -0.0480    -2.1240    -2.8120 ca         1 L2Q      -0.083000
     40 CBM         -1.1830    -2.7350    -2.2550 ca         1 L2Q      -0.200000
     41 CBL         -1.3320    -2.7970    -0.8530 ca         1 L2Q       0.140100
     42 OBP         -2.4400    -3.3550    -0.2500 os         1 L2Q      -0.330100
     43 CBQ         -3.4940    -3.9830    -1.0070 c3         1 L2Q       0.166600
     44 CBR         -4.6120    -4.4390    -0.0290 c3         1 L2Q       0.167800
     45 NBS         -5.3630    -3.3510     0.6620 n3         1 L2Q      -0.703600
     46 CBX         -6.1530    -2.4780    -0.2640 c6         1 L2Q       0.125800
     47 CBW         -6.8960    -1.3460     0.5060 c6         1 L2Q       0.152600
     48 OBV         -7.7300    -1.9100     1.5450 os         1 L2Q      -0.448000
     49 CBU         -6.9780    -2.7030     2.4950 c6         1 L2Q       0.152600
     50 CBT         -6.2340    -3.8610     1.7650 c6         1 L2Q       0.125800
     51 H1          -3.9100     2.0190     0.9430 hc         1 L2Q       0.081700
     52 H2          -2.0530     1.7760    -1.5030 hc         1 L2Q       0.047700
     53 H3          -1.8910     0.9040     0.0140 hc         1 L2Q       0.047700
     54 H4          -2.9510    -0.5260    -1.7210 hc         1 L2Q       0.047700
     55 H5          -4.0010    -0.2970    -0.3290 hc         1 L2Q       0.047700
     56 H6          -4.1900     1.1770    -3.0300 hc         1 L2Q       0.035700
     57 H7          -5.3150    -0.0370    -2.4320 hc         1 L2Q       0.035700
     58 H8          -6.1990     2.3000    -2.1240 hc         1 L2Q       0.052700
     59 H9          -6.0450     1.4540    -0.5860 hc         1 L2Q       0.052700
     60 H10         -3.9730     3.4510    -1.7190 hc         1 L2Q       0.059700
     61 H11         -3.8460     5.7310    -0.6760 hc         1 L2Q       0.066200
     62 H12         -4.9700     6.1680     0.6560 hc         1 L2Q       0.066200
     63 H13         -2.5780     5.6610     1.3990 hc         1 L2Q       0.057700
     64 H14         -3.7310     4.5490     2.1200 hc         1 L2Q       0.057700
     65 H15         -1.9910     4.0120    -0.3210 hc         1 L2Q       0.056700
     66 H16         -0.2800     5.3740     0.1570 h1         1 L2Q       0.056700
     67 H17         -0.1760     5.5260     1.9130 h1         1 L2Q       0.056700
     68 H18          1.8180     6.4630     0.7300 hc         1 L2Q       0.049700
     69 H19          2.2530     5.1830     1.8620 hc         1 L2Q       0.049700
     70 H20          1.8670     4.8100    -1.1760 hc         1 L2Q       0.045700
     71 H21          3.4260     4.9000    -0.3480 hc         1 L2Q       0.045700
     72 H22          2.7490     2.5360    -0.7250 hc         1 L2Q       0.067700
     73 H23          2.9150     2.8960     0.9870 hc         1 L2Q       0.067700
     74 H24          0.3610     2.5320    -0.6180 h1         1 L2Q       0.072700
     75 H25          1.6820    -1.3590     1.3890 h1         1 L2Q       0.078700
     76 H26          3.3280    -2.6410    -0.0270 hc         1 L2Q       0.054700
     77 H27          3.6070    -1.1920    -0.9870 hc         1 L2Q       0.054700
     78 H28          4.3840     0.0190     1.0830 hc         1 L2Q       0.055200
     79 H29          4.1100    -1.4310     2.0300 hc         1 L2Q       0.055200
     80 H30          6.1450     0.0500    -0.7020 ha         1 L2Q       0.116000
     81 H31          5.6930    -3.3070     1.9540 ha         1 L2Q       0.115000
     82 H32          7.9370    -4.1170     1.3640 ha         1 L2Q       0.118000
     83 H33         11.2350    -4.2500    -0.2680 h1         1 L2Q       0.038033
     84 H34         10.3290    -4.0290     1.2440 h1         1 L2Q       0.038033
     85 H35          9.6300    -4.9900    -0.0890 h1         1 L2Q       0.038033
     86 H36          8.9840     0.9570    -2.8510 h1         1 L2Q       0.038033
     87 H37          7.2980     0.4070    -2.7640 h1         1 L2Q       0.038033
     88 H38          7.9960     1.3710    -1.4350 h1         1 L2Q       0.038033
     89 H39         -0.4590    -2.3120     1.0540 ha         1 L2Q       0.135000
     90 H40          1.8080    -1.1010    -2.4270 ha         1 L2Q       0.120000
     91 H41          0.0620    -2.0630    -3.8930 ha         1 L2Q       0.109000
     92 H42         -1.9360    -3.1400    -2.9240 ha         1 L2Q       0.113000
     93 H43         -3.9100    -3.2940    -1.7520 h1         1 L2Q       0.033700
     94 H44         -3.1060    -4.8620    -1.5360 h1         1 L2Q       0.033700
     95 H45         -5.3160    -5.0670    -0.5920 h1         1 L2Q       0.043700
     96 H46         -4.1420    -5.0930     0.7180 h1         1 L2Q       0.043700
     97 H48         -5.5020    -2.0140    -1.0160 h1         1 L2Q       0.038950
     98 H49         -6.8970    -3.0770    -0.8110 h1         1 L2Q       0.038950
     99 H50         -6.1660    -0.6590     0.9590 h1         1 L2Q       0.053450
    100 H51         -7.5230    -0.7690    -0.1880 h1         1 L2Q       0.053450
    101 H52         -6.2520    -2.0580     3.0110 h1         1 L2Q       0.053450
    102 H53         -7.6660    -3.1140     3.2460 h1         1 L2Q       0.053450
    103 H54         -6.9810    -4.5640     1.3670 h1         1 L2Q       0.038950
    104 H55         -5.6320    -4.4120     2.5020 h1         1 L2Q       0.038950
@<TRIPOS>BOND
     1     1     2 1   
     2     1     6 1   
     3     1    11 1   
     4     1    51 1   
     5     2     3 1   
     6     2    52 1   
     7     2    53 1   
     8     3     4 1   
     9     3    54 1   
    10     3    55 1   
    11     4     5 1   
    12     4    56 1   
    13     4    57 1   
    14     5     6 1   
    15     5    58 1   
    16     5    59 1   
    17     6     7 1   
    18     6    60 1   
    19     7     8 2   
    20     7     9 1   
    21     9    10 1   
    22     9    61 1   
    23     9    62 1   
    24    10    11 1   
    25    10    63 1   
    26    10    64 1   
    27    11    12 1   
    28    11    65 1   
    29    12    13 2   
    30    12    14 1   
    31    14    15 1   
    32    14    19 1   
    33    15    16 1   
    34    15    66 1   
    35    15    67 1   
    36    16    17 1   
    37    16    68 1   
    38    16    69 1   
    39    17    18 1   
    40    17    70 1   
    41    17    71 1   
    42    18    19 1   
    43    18    72 1   
    44    18    73 1   
    45    19    20 1   
    46    19    74 1   
    47    20    21 2   
    48    20    22 1   
    49    22    23 1   
    50    23    24 1   
    51    23    36 1   
    52    23    75 1   
    53    24    25 1   
    54    24    76 1   
    55    24    77 1   
    56    25    26 1   
    57    25    78 1   
    58    25    79 1   
    59    26    27 ar  
    60    26    28 ar  
    61    27    33 ar  
    62    27    80 1   
    63    28    29 ar  
    64    28    81 1   
    65    29    30 ar  
    66    29    82 1   
    67    30    31 1   
    68    30    33 ar  
    69    31    32 1   
    70    32    83 1   
    71    32    84 1   
    72    32    85 1   
    73    33    34 1   
    74    34    35 1   
    75    35    86 1   
    76    35    87 1   
    77    35    88 1   
    78    36    37 ar  
    79    36    38 ar  
    80    37    41 ar  
    81    37    89 1   
    82    38    39 ar  
    83    38    90 1   
    84    39    40 ar  
    85    39    91 1   
    86    40    41 ar  
    87    40    92 1   
    88    41    42 1   
    89    42    43 1   
    90    43    44 1   
    91    43    93 1   
    92    43    94 1   
    93    44    45 1   
    94    44    95 1   
    95    44    96 1   
    96    45    46 1   
    97    45    50 1   
    98    46    47 1   
    99    46    97 1   
   100    46    98 1   
   101    47    48 1   
   102    47    99 1   
   103    47   100 1   
   104    48    49 1   
   105    49    50 1   
   106    49   101 1   
   107    49   102 1   
   108    50   103 1   
   109    50   104 1   
@<TRIPOS>SUBSTRUCTURE
     1 L2Q         1 TEMP              0 ****  ****    0 ROOT
