@<TRIPOS>MOLECULE
L2Q
  104   109     1     0     0
SMALL
bcc


@<TRIPOS>ATOM
      1 CAN         -3.0510     2.2660    -0.2390 c6         1 L2Q      -0.040700
      2 CAR         -2.5920     1.3650    -1.3850 c6         1 L2Q      -0.071400
      3 CAQ         -3.5710     0.2290    -1.6600 c6         1 L2Q      -0.079400
      4 CAP         -4.9800     0.7480    -1.9110 c6         1 L2Q      -0.076400
      5 CAO         -5.4510     1.6250    -0.7600 c6         1 L2Q      -0.062400
      6 CAM         -4.4820     2.7770    -0.5260 c6         1 L2Q      -0.163700
      7 CAL         -4.9400     3.7250     0.5560 c          1 L2Q       0.576100
      8 OAS         -5.9660     3.5660     1.1800 o          1 L2Q      -0.514100
      9 CAK         -4.0130     4.8840     0.8020 c6         1 L2Q      -0.183400
     10 CAJ         -2.6030     4.3720     1.0920 c6         1 L2Q      -0.068400
     11 CAI         -2.0960     3.4480    -0.0230 c6         1 L2Q      -0.131700
     12 CAG         -0.7120     2.9690     0.3850 c          1 L2Q       0.668100
     13 OAH         -0.6070     2.0910     1.2320 o          1 L2Q      -0.589100
     14 N            0.3920     3.5340    -0.1630 n          1 L2Q      -0.450800
     15 CAE          0.4150     4.8010    -0.8870 c6         1 L2Q       0.096000
     16 CAD          0.7630     5.9510     0.0540 c6         1 L2Q      -0.108400
     17 CAC          2.0550     5.6720     0.8150 c6         1 L2Q      -0.077400
     18 CB           2.0400     4.2940     1.4740 c6         1 L2Q      -0.092400
     19 CA           1.6960     3.2400     0.4290 c6         1 L2Q       0.040700
     20 C            1.8320     1.8150     0.9360 c          1 L2Q       0.674100
     21 O            2.1630     1.5240     2.0560 o          1 L2Q      -0.527000
     22 OAV          1.7000     0.9520    -0.0630 os         1 L2Q      -0.419900
     23 CAW          1.6760    -0.4580     0.2120 c3         1 L2Q       0.204400
     24 CAY          3.0400    -1.0980    -0.0300 c3         1 L2Q      -0.092400
     25 CAZ          4.1560    -0.6890     0.9320 c3         1 L2Q      -0.024100
     26 CBA          5.3950    -1.5060     0.6850 ca         1 L2Q      -0.077300
     27 CBF          6.3090    -1.1170    -0.3000 ca         1 L2Q      -0.186000
     28 CBB          5.6340    -2.6750     1.3820 ca         1 L2Q      -0.123000
     29 CBC          6.7590    -3.4540     1.1110 ca         1 L2Q      -0.186000
     30 CBD          7.6630    -3.0690     0.1360 ca         1 L2Q       0.108100
     31 OBG          8.7790    -3.7480    -0.1990 os         1 L2Q      -0.298900
     32 CBH          9.0460    -4.9570     0.4780 c3         1 L2Q       0.122700
     33 CBE          7.4320    -1.8770    -0.5810 ca         1 L2Q       0.110100
     34 OBI          8.3610    -1.5670    -1.5070 os         1 L2Q      -0.299900
     35 CBJ          8.1810    -0.3870    -2.2620 c3         1 L2Q       0.123700
     36 CAX          0.6400    -1.0640    -0.6990 ca         1 L2Q      -0.055300
     37 CBK         -0.4000    -1.7940    -0.1540 ca         1 L2Q      -0.144000
     38 CBO          0.7440    -0.9420    -2.0850 ca         1 L2Q      -0.143000
     39 CBN         -0.1800    -1.5770    -2.8940 ca         1 L2Q      -0.101000
     40 CBM         -1.2170    -2.3320    -2.3540 ca         1 L2Q      -0.218000
     41 CBL         -1.3370    -2.4290    -0.9730 ca         1 L2Q       0.140100
     42 OBP         -2.3140    -3.1000    -0.3340 os         1 L2Q      -0.306900
     43 CBQ         -3.3100    -3.7530    -1.0980 c3         1 L2Q       0.143400
     44 CBR         -4.2860    -4.4040    -0.1440 c3         1 L2Q       0.167800
     45 NBS         -5.0080    -3.4590     0.6840 n3         1 L2Q      -0.703600
     46 CBX         -6.0200    -2.7300    -0.0550 c6         1 L2Q       0.125800
     47 CBW         -6.7370    -1.7530     0.8570 c6         1 L2Q       0.129400
     48 OBV         -7.3130    -2.4000     1.9680 os         1 L2Q      -0.401600
     49 CBU         -6.3300    -3.0980     2.6990 c6         1 L2Q       0.129400
     50 CBT         -5.6090    -4.1130     1.8330 c6         1 L2Q       0.125800
     51 H1          -3.0810     1.6730     0.6830 hc         1 L2Q       0.081700
     52 H2          -2.4820     1.9770    -2.2890 hc         1 L2Q       0.047700
     53 H3          -1.6060     0.9470    -1.1640 hc         1 L2Q       0.047700
     54 H4          -3.2200    -0.3500    -2.5150 hc         1 L2Q       0.047700
     55 H5          -3.5780    -0.4570    -0.8040 hc         1 L2Q       0.047700
     56 H6          -4.9950     1.3270    -2.8410 hc         1 L2Q       0.035700
     57 H7          -5.6750    -0.0840    -2.0550 hc         1 L2Q       0.035700
     58 H8          -6.4520     2.0110    -0.9620 hc         1 L2Q       0.052700
     59 H9          -5.5250     1.0220     0.1500 hc         1 L2Q       0.052700
     60 H10         -4.4260     3.3800    -1.4460 hc         1 L2Q       0.059700
     61 H11         -3.9960     5.5060    -0.0990 hc         1 L2Q       0.066200
     62 H12         -4.3810     5.4970     1.6250 hc         1 L2Q       0.066200
     63 H13         -1.9350     5.2260     1.2170 hc         1 L2Q       0.057700
     64 H14         -2.6000     3.8280     2.0400 hc         1 L2Q       0.057700
     65 H15         -2.0720     4.0160    -0.9570 hc         1 L2Q       0.056700
     66 H16          1.1700     4.7190    -1.6740 h1         1 L2Q       0.056700
     67 H17         -0.5330     4.9780    -1.3850 h1         1 L2Q       0.056700
     68 H18          0.8490     6.8730    -0.5250 hc         1 L2Q       0.049700
     69 H19         -0.0580     6.0990     0.7620 hc         1 L2Q       0.049700
     70 H20          2.9010     5.7250     0.1220 hc         1 L2Q       0.045700
     71 H21          2.2200     6.4440     1.5680 hc         1 L2Q       0.045700
     72 H22          3.0170     4.0800     1.9100 hc         1 L2Q       0.067700
     73 H23          1.3090     4.2600     2.2870 hc         1 L2Q       0.067700
     74 H24          2.4230     3.3270    -0.3890 h1         1 L2Q       0.072700
     75 H25          1.3780    -0.6180     1.2520 h1         1 L2Q       0.078700
     76 H26          2.8940    -2.1790     0.0460 hc         1 L2Q       0.054700
     77 H27          3.3570    -0.9060    -1.0600 hc         1 L2Q       0.054700
     78 H28          4.3890     0.3720     0.8140 hc         1 L2Q       0.055200
     79 H29          3.8220    -0.8300     1.9620 hc         1 L2Q       0.055200
     80 H30          6.1230    -0.1980    -0.8440 ha         1 L2Q       0.134000
     81 H31          4.9420    -3.0020     2.1500 ha         1 L2Q       0.133000
     82 H32          6.9110    -4.3630     1.6770 ha         1 L2Q       0.136000
     83 H33          9.9710    -5.3480     0.0630 h1         1 L2Q       0.038033
     84 H34          9.1800    -4.8060     1.5530 h1         1 L2Q       0.038033
     85 H35          8.2540    -5.6960     0.3260 h1         1 L2Q       0.038033
     86 H36          9.0260    -0.3260    -2.9440 h1         1 L2Q       0.038033
     87 H37          7.2580    -0.4110    -2.8480 h1         1 L2Q       0.038033
     88 H38          8.1730     0.5060    -1.6320 h1         1 L2Q       0.038033
     89 H39         -0.4980    -1.8840     0.9220 ha         1 L2Q       0.153000
     90 H40          1.5430    -0.3660    -2.5340 ha         1 L2Q       0.138000
     91 H41         -0.1000    -1.4930    -3.9710 ha         1 L2Q       0.127000
     92 H42         -1.9160    -2.8180    -3.0200 ha         1 L2Q       0.131000
     93 H43         -3.8110    -3.0420    -1.7640 h1         1 L2Q       0.033700
     94 H44         -2.8670    -4.5300    -1.7320 h1         1 L2Q       0.033700
     95 H45         -4.9650    -5.0340    -0.7410 h1         1 L2Q       0.043700
     96 H46         -3.7320    -5.0830     0.5100 h1         1 L2Q       0.043700
     97 H48         -5.5590    -2.1580    -0.8650 h1         1 L2Q       0.038950
     98 H49         -6.7530    -3.4110    -0.5210 h1         1 L2Q       0.038950
     99 H50         -6.0270    -0.9810     1.1900 h1         1 L2Q       0.053450
    100 H51         -7.5410    -1.2550     0.3120 h1         1 L2Q       0.053450
    101 H52         -5.5990    -2.3970     3.1260 h1         1 L2Q       0.053450
    102 H53         -6.8320    -3.6030     3.5250 h1         1 L2Q       0.053450
    103 H54         -6.3190    -4.9050     1.5350 h1         1 L2Q       0.038950
    104 H55         -4.8270    -4.5910     2.4270 h1         1 L2Q       0.038950
@<TRIPOS>BOND
     1     1     2 1   
     2     1     6 1   
     3     1    11 1   
     4     1    51 1   
     5     2     3 1   
     6     2    52 1   
     7     2    53 1   
     8     3     4 1   
     9     3    54 1   
    10     3    55 1   
    11     4     5 1   
    12     4    56 1   
    13     4    57 1   
    14     5     6 1   
    15     5    58 1   
    16     5    59 1   
    17     6     7 1   
    18     6    60 1   
    19     7     8 2   
    20     7     9 1   
    21     9    10 1   
    22     9    61 1   
    23     9    62 1   
    24    10    11 1   
    25    10    63 1   
    26    10    64 1   
    27    11    12 1   
    28    11    65 1   
    29    12    13 2   
    30    12    14 1   
    31    14    15 1   
    32    14    19 1   
    33    15    16 1   
    34    15    66 1   
    35    15    67 1   
    36    16    17 1   
    37    16    68 1   
    38    16    69 1   
    39    17    18 1   
    40    17    70 1   
    41    17    71 1   
    42    18    19 1   
    43    18    72 1   
    44    18    73 1   
    45    19    20 1   
    46    19    74 1   
    47    20    21 2   
    48    20    22 1   
    49    22    23 1   
    50    23    24 1   
    51    23    36 1   
    52    23    75 1   
    53    24    25 1   
    54    24    76 1   
    55    24    77 1   
    56    25    26 1   
    57    25    78 1   
    58    25    79 1   
    59    26    27 ar  
    60    26    28 ar  
    61    27    33 ar  
    62    27    80 1   
    63    28    29 ar  
    64    28    81 1   
    65    29    30 ar  
    66    29    82 1   
    67    30    31 1   
    68    30    33 ar  
    69    31    32 1   
    70    32    83 1   
    71    32    84 1   
    72    32    85 1   
    73    33    34 1   
    74    34    35 1   
    75    35    86 1   
    76    35    87 1   
    77    35    88 1   
    78    36    37 ar  
    79    36    38 ar  
    80    37    41 ar  
    81    37    89 1   
    82    38    39 ar  
    83    38    90 1   
    84    39    40 ar  
    85    39    91 1   
    86    40    41 ar  
    87    40    92 1   
    88    41    42 1   
    89    42    43 1   
    90    43    44 1   
    91    43    93 1   
    92    43    94 1   
    93    44    45 1   
    94    44    95 1   
    95    44    96 1   
    96    45    46 1   
    97    45    50 1   
    98    46    47 1   
    99    46    97 1   
   100    46    98 1   
   101    47    48 1   
   102    47    99 1   
   103    47   100 1   
   104    48    49 1   
   105    49    50 1   
   106    49   101 1   
   107    49   102 1   
   108    50   103 1   
   109    50   104 1   
@<TRIPOS>SUBSTRUCTURE
     1 L2Q         1 TEMP              0 ****  ****    0 ROOT
