@<TRIPOS>MOLECULE
L2R
   55    58     1     0     0
SMALL
No Charge or Current Charge


@<TRIPOS>ATOM
      1 CAB         29.6450    18.4040    12.0290 ca         1 L2R      -0.074500
      2 CAA         30.3900    19.5800    12.2250 ca         1 L2R      -0.119500
      3 CAC         31.3030    20.0060    11.2490 ca         1 L2R      -0.099000
      4 CAD         31.4820    19.2440    10.0840 ca         1 L2R      -0.119500
      5 CAE         30.7370    18.0680     9.8880 ca         1 L2R      -0.074500
      6 CAF         29.7830    17.6480    10.8430 ca         1 L2R      -0.113900
      7 CAG         29.0220    16.3960    10.6940 cc         1 L2R       0.404500
      8 NAH         28.7240    15.5870    11.6970 nd         1 L2R      -0.508300
      9 NAI         27.9410    14.6240    11.1240 ns         1 L2R      -0.284400
     10 CAJ         27.7070    14.8050     9.7910 cs         1 L2R       0.368400
     11 SAL         26.7240    13.8760     8.8070 s          1 L2R      -0.583400
     12 NAK         28.4230    15.9430     9.5170 n          1 L2R      -0.230300
     13 CAM         28.3260    16.6800     8.2420 c3         1 L2R       0.103000
     14 CAN         29.2390    16.1110     7.1330 c3         1 L2R      -0.093400
     15 CB          29.2890    17.0140     5.8770 c3         1 L2R      -0.053400
     16 CA          30.2470    16.4980     4.7620 c3         1 L2R       0.076500
     17 C           29.7440    15.0930     4.2200 c          1 L2R       0.699000
     18 OXT         30.4200    14.1030     4.4720 o          1 L2R      -0.725500
     19 O           28.6870    15.0300     3.6020 o          1 L2R      -0.725500
     20 N           30.5760    17.5900     3.7640 n3         1 L2R      -0.769600
     21 CAW         29.4260    18.0370     2.9090 c3         1 L2R       0.181000
     22 CAX         29.6060    19.3830     2.2140 cc         1 L2R       0.244800
     23 CBA         30.3400    20.4560     2.6470 cd         1 L2R      -0.215500
     24 NBB         30.1630    21.4320     1.6790 na         1 L2R      -0.310500
     25 CAZ         29.3240    20.9120     0.7120 cd         1 L2R       0.365900
     26 NAY         28.9750    19.6740     1.0300 nc         1 L2R      -0.667500
     27 CAU         31.8530    17.3760     3.0010 c3         1 L2R       0.181000
     28 CAV         31.8650    16.2910     1.9270 cc         1 L2R       0.244800
     29 CBD         32.3150    15.0040     2.0560 cd         1 L2R      -0.215500
     30 NBF         32.1550    14.4350     0.8030 na         1 L2R      -0.310500
     31 CBE         31.6320    15.4040    -0.0310 cd         1 L2R       0.365900
     32 NBC         31.4660    16.5350     0.6360 nc         1 L2R      -0.667500
     33 H1          28.9450    18.0870    12.7990 ha         1 L2R       0.132000
     34 H2          30.2600    20.1600    13.1360 ha         1 L2R       0.115000
     35 H3          31.8820    20.9140    11.4010 ha         1 L2R       0.109000
     36 H4          32.2060    19.5580     9.3360 ha         1 L2R       0.115000
     37 H5          30.9240    17.4790     8.9970 ha         1 L2R       0.132000
     38 H6          27.5230    13.8410    11.6370 hn         1 L2R       0.496000
     39 H7          28.5700    17.7350     8.4160 h1         1 L2R       0.066700
     40 H8          27.2840    16.6530     7.8960 h1         1 L2R       0.066700
     41 H9          28.8730    15.1150     6.8560 hc         1 L2R       0.071200
     42 H10         30.2550    15.9700     7.5180 hc         1 L2R       0.071200
     43 H11         29.6150    18.0150     6.1850 hc         1 L2R       0.028200
     44 H12         28.2730    17.1190     5.4790 hc         1 L2R       0.028200
     45 H13         31.1870    16.2740     5.2850 h1         1 L2R       0.030700
     46 H16         28.5170    18.1280     3.5150 h1         1 L2R       0.053450
     47 H17         29.2090    17.2800     2.1430 h1         1 L2R       0.053450
     48 H18         30.9470    20.5800     3.5370 h4         1 L2R       0.157000
     49 H19         30.5630    22.3630     1.6660 hn         1 L2R       0.333500
     50 H20         29.0180    21.4770    -0.1620 h5         1 L2R       0.035100
     51 H22         32.6620    17.1470     3.7080 h1         1 L2R       0.053450
     52 H23         32.1480    18.3160     2.5150 h1         1 L2R       0.053450
     53 H24         32.7170    14.4790     2.9160 h4         1 L2R       0.157000
     54 H25         32.3780    13.4850     0.5270 hn         1 L2R       0.333500
     55 H26         31.4170    15.2210    -1.0780 h5         1 L2R       0.035100
@<TRIPOS>BOND
     1     1     2 ar  
     2     1     6 ar  
     3     1    33 1   
     4     2     3 ar  
     5     2    34 1   
     6     3     4 ar  
     7     3    35 1   
     8     4     5 ar  
     9     4    36 1   
    10     5     6 ar  
    11     5    37 1   
    12     6     7 1   
    13     7     8 2   
    14     7    12 1   
    15     8     9 1   
    16     9    10 1   
    17     9    38 1   
    18    10    11 2   
    19    10    12 1   
    20    12    13 1   
    21    13    14 1   
    22    13    39 1   
    23    13    40 1   
    24    14    15 1   
    25    14    41 1   
    26    14    42 1   
    27    15    16 1   
    28    15    43 1   
    29    15    44 1   
    30    16    17 1   
    31    16    20 1   
    32    16    45 1   
    33    17    18 1   
    34    17    19 1   
    35    20    21 1   
    36    20    27 1   
    37    21    22 1   
    38    21    46 1   
    39    21    47 1   
    40    22    23 2   
    41    22    26 1   
    42    23    24 1   
    43    23    48 1   
    44    24    25 1   
    45    24    49 1   
    46    25    26 2   
    47    25    50 1   
    48    27    28 1   
    49    27    51 1   
    50    27    52 1   
    51    28    29 2   
    52    28    32 1   
    53    29    30 1   
    54    29    53 1   
    55    30    31 1   
    56    30    54 1   
    57    31    32 2   
    58    31    55 1   
@<TRIPOS>SUBSTRUCTURE
     1 L2R         1 TEMP              0 ****  ****    0 ROOT
