@<TRIPOS>MOLECULE
L2R
   55    58     1     0     0
SMALL
abcg2


@<TRIPOS>ATOM
      1 CAB         29.5240    18.5260    11.8360 ca         1 L2R      -0.074500
      2 CAA         30.2430    19.6830    12.0900 ca         1 L2R      -0.119500
      3 CAC         31.2260    20.1020    11.2030 ca         1 L2R      -0.099000
      4 CAD         31.4940    19.3540    10.0650 ca         1 L2R      -0.119500
      5 CAE         30.7790    18.1940     9.8080 ca         1 L2R      -0.074500
      6 CAF         29.7850    17.7750    10.6900 ca         1 L2R      -0.113900
      7 CAG         29.0240    16.5420    10.4740 cc         1 L2R       0.404500
      8 NAH         28.7630    15.6970    11.4210 nd         1 L2R      -0.508300
      9 NAI         28.0240    14.7440    10.8300 ns         1 L2R      -0.284400
     10 CAJ         27.8030    14.9620     9.5290 cs         1 L2R       0.368400
     11 SAL         26.9030    14.0400     8.4660 s          1 L2R      -0.583400
     12 NAK         28.4590    16.1330     9.2930 n          1 L2R      -0.230300
     13 CAM         28.4450    16.8160     8.0100 c3         1 L2R       0.103000
     14 CAN         29.4190    16.2160     7.0060 c3         1 L2R      -0.093400
     15 CB          29.3660    16.9840     5.6920 c3         1 L2R      -0.053400
     16 CA          30.3140    16.4290     4.6190 c3         1 L2R       0.076500
     17 C           29.8090    15.0350     4.1620 c          1 L2R       0.699000
     18 OXT         30.3110    14.0490     4.7420 o          1 L2R      -0.725500
     19 O           28.9080    15.0130     3.3000 o          1 L2R      -0.725500
     20 N           30.5490    17.4280     3.5870 n3         1 L2R      -0.769600
     21 CAW         29.4260    17.9200     2.8180 c3         1 L2R       0.181000
     22 CAX         29.5730    19.3810     2.5210 cc         1 L2R       0.244800
     23 CBA         30.2770    20.3240     3.2190 cd         1 L2R      -0.215500
     24 NBB         30.0560    21.5030     2.5630 na         1 L2R      -0.310500
     25 CAZ         29.2480    21.2420     1.5190 cd         1 L2R       0.365900
     26 NAY         28.9380    19.9710     1.4610 nc         1 L2R      -0.667500
     27 CAU         31.7590    17.2260     2.8120 c3         1 L2R       0.181000
     28 CAV         31.7930    16.0620     1.8690 cc         1 L2R       0.244800
     29 CBD         32.3960    14.8500     2.0610 cd         1 L2R      -0.215500
     30 NBF         32.1360    14.1240     0.9360 na         1 L2R      -0.310500
     31 CBE         31.4080    14.9020     0.1120 cd         1 L2R       0.365900
     32 NBC         31.1880    16.0810     0.6380 nc         1 L2R      -0.667500
     33 H1          28.7500    18.2090    12.5230 ha         1 L2R       0.132000
     34 H2          30.0300    20.2620    12.9790 ha         1 L2R       0.115000
     35 H3          31.7850    21.0080    11.4000 ha         1 L2R       0.109000
     36 H4          32.2660    19.6680     9.3750 ha         1 L2R       0.115000
     37 H5          31.0230    17.6080     8.9310 ha         1 L2R       0.132000
     38 H6          27.6900    13.9530    11.3600 hn         1 L2R       0.496000
     39 H7          28.6590    17.8690     8.1900 h1         1 L2R       0.066700
     40 H8          27.4260    16.7530     7.6260 h1         1 L2R       0.066700
     41 H9          29.1690    15.1660     6.8550 hc         1 L2R       0.071200
     42 H10         30.4360    16.2420     7.4080 hc         1 L2R       0.071200
     43 H11         29.6330    18.0300     5.8760 hc         1 L2R       0.028200
     44 H12         28.3350    16.9860     5.3250 hc         1 L2R       0.028200
     45 H13         31.2870    16.2860     5.1030 h1         1 L2R       0.030700
     46 H16         28.5100    17.7660     3.3900 h1         1 L2R       0.053450
     47 H17         29.2660    17.3840     1.8750 h1         1 L2R       0.053450
     48 H18         30.9020    20.2560     4.0920 h4         1 L2R       0.157000
     49 H19         30.4410    22.4010     2.8070 hn         1 L2R       0.333500
     50 H20         28.9240    22.0080     0.8320 h5         1 L2R       0.035100
     51 H22         32.5930    17.1230     3.5130 h1         1 L2R       0.053450
     52 H23         31.9480    18.1430     2.2450 h1         1 L2R       0.053450
     53 H24         32.9630    14.4540     2.8860 h4         1 L2R       0.157000
     54 H25         32.4430    13.1830     0.7480 hn         1 L2R       0.333500
     55 H26         31.0760    14.5660    -0.8590 h5         1 L2R       0.035100
@<TRIPOS>BOND
     1     1     2 ar  
     2     1     6 ar  
     3     1    33 1   
     4     2     3 ar  
     5     2    34 1   
     6     3     4 ar  
     7     3    35 1   
     8     4     5 ar  
     9     4    36 1   
    10     5     6 ar  
    11     5    37 1   
    12     6     7 1   
    13     7     8 2   
    14     7    12 1   
    15     8     9 1   
    16     9    10 1   
    17     9    38 1   
    18    10    11 2   
    19    10    12 1   
    20    12    13 1   
    21    13    14 1   
    22    13    39 1   
    23    13    40 1   
    24    14    15 1   
    25    14    41 1   
    26    14    42 1   
    27    15    16 1   
    28    15    43 1   
    29    15    44 1   
    30    16    17 1   
    31    16    20 1   
    32    16    45 1   
    33    17    18 1   
    34    17    19 1   
    35    20    21 1   
    36    20    27 1   
    37    21    22 1   
    38    21    46 1   
    39    21    47 1   
    40    22    23 2   
    41    22    26 1   
    42    23    24 1   
    43    23    48 1   
    44    24    25 1   
    45    24    49 1   
    46    25    26 2   
    47    25    50 1   
    48    27    28 1   
    49    27    51 1   
    50    27    52 1   
    51    28    29 2   
    52    28    32 1   
    53    29    30 1   
    54    29    53 1   
    55    30    31 1   
    56    30    54 1   
    57    31    32 2   
    58    31    55 1   
@<TRIPOS>SUBSTRUCTURE
     1 L2R         1 TEMP              0 ****  ****    0 ROOT
