@<TRIPOS>MOLECULE
L2S
   36    37     1     0     0
SMALL
No Charge or Current Charge


@<TRIPOS>ATOM
      1 C1          -5.1440     1.5420     0.4980 c6         1 L2S      -0.073400
      2 N1          -2.9660    -0.1350    -0.5340 n          1 L2S      -0.402800
      3 O1          -2.0160    -2.1190     0.1270 o          1 L2S      -0.585100
      4 S1           0.9120    -1.5010     0.1700 ss         1 L2S      -0.076000
      5 C2          -5.1830    -0.0020     0.6060 c6         1 L2S      -0.100400
      6 C3          -4.3590    -0.6580    -0.5280 c6         1 L2S       0.096000
      7 C4          -2.9040     1.3430    -0.7040 c6         1 L2S       0.096000
      8 C5          -3.6840     2.0540     0.4270 c6         1 L2S      -0.100400
      9 C6          -1.8580    -0.9400    -0.1690 c          1 L2S       0.619100
     10 C7          -0.4560    -0.3010    -0.1880 c3         1 L2S      -0.067400
     11 C8           2.4310    -0.5420     0.1020 ca         1 L2S      -0.115000
     12 C9           3.6450    -1.2080     0.3470 ca         1 L2S      -0.107500
     13 C10          4.8640    -0.5100     0.3070 ca         1 L2S      -0.098000
     14 C11          4.8840     0.8670     0.0220 ca         1 L2S      -0.081300
     15 C12          3.6710     1.5360    -0.2270 ca         1 L2S      -0.098000
     16 C13          2.4500     0.8390    -0.1870 ca         1 L2S      -0.107500
     17 C14          6.2020     1.6240    -0.0250 c3         1 L2S      -0.044800
     18 H11         -5.6910     1.8630    -0.4000 hc         1 L2S       0.042700
     19 H21         -5.6600     1.9930     1.3570 hc         1 L2S       0.042700
     20 H12         -4.7800    -0.3170     1.5790 hc         1 L2S       0.050450
     21 H22         -6.2220    -0.3570     0.5660 hc         1 L2S       0.050450
     22 H13         -4.8270    -0.4320    -1.4980 h1         1 L2S       0.056450
     23 H23         -4.3740    -1.7500    -0.4110 h1         1 L2S       0.056450
     24 H14         -1.8720     1.7160    -0.7240 h1         1 L2S       0.056450
     25 H24         -3.3530     1.6060    -1.6730 h1         1 L2S       0.056450
     26 H15         -3.6730     3.1400     0.2640 hc         1 L2S       0.050450
     27 H25         -3.1800     1.8750     1.3880 hc         1 L2S       0.050450
     28 H17         -0.4390     0.4960     0.5630 h1         1 L2S       0.079700
     29 H27         -0.2980     0.1340    -1.1810 h1         1 L2S       0.079700
     30 H9           3.6440    -2.2730     0.5690 ha         1 L2S       0.114500
     31 H10          5.7940    -1.0420     0.4970 ha         1 L2S       0.110000
     32 H112         3.6730     2.6010    -0.4520 ha         1 L2S       0.110000
     33 H113         1.5350     1.3890    -0.3840 ha         1 L2S       0.114500
     34 H114         6.6220     1.6140    -1.0380 hc         1 L2S       0.042033
     35 H214         6.0740     2.6710     0.2750 hc         1 L2S       0.042033
     36 H314         6.9440     1.1790     0.6490 hc         1 L2S       0.042033
@<TRIPOS>BOND
     1     1     5 1   
     2     1     8 1   
     3     1    18 1   
     4     1    19 1   
     5     2     6 1   
     6     2     7 1   
     7     2     9 1   
     8     3     9 2   
     9     4    10 1   
    10     4    11 1   
    11     5     6 1   
    12     5    20 1   
    13     5    21 1   
    14     6    22 1   
    15     6    23 1   
    16     7     8 1   
    17     7    24 1   
    18     7    25 1   
    19     8    26 1   
    20     8    27 1   
    21     9    10 1   
    22    10    28 1   
    23    10    29 1   
    24    11    12 ar  
    25    11    16 ar  
    26    12    13 ar  
    27    12    30 1   
    28    13    14 ar  
    29    13    31 1   
    30    14    15 ar  
    31    14    17 1   
    32    15    16 ar  
    33    15    32 1   
    34    16    33 1   
    35    17    34 1   
    36    17    35 1   
    37    17    36 1   
@<TRIPOS>SUBSTRUCTURE
     1 L2S         1 TEMP              0 ****  ****    0 ROOT
