@<TRIPOS>MOLECULE
L2S
   36    37     1     0     0
SMALL
abcg2


@<TRIPOS>ATOM
      1 C1          -5.0040     1.4920     0.5020 c6         1 L2S      -0.073400
      2 N1          -2.8930    -0.1460    -0.5680 n          1 L2S      -0.402800
      3 O1          -1.8820    -2.0480     0.1220 o          1 L2S      -0.585100
      4 S1           0.7710    -1.3790     0.2530 ss         1 L2S      -0.076000
      5 C2          -4.9950    -0.0240     0.6760 c6         1 L2S      -0.100400
      6 C3          -4.2370    -0.6980    -0.4610 c6         1 L2S       0.096000
      7 C4          -2.8830     1.2860    -0.8250 c6         1 L2S       0.096000
      8 C5          -3.5930     2.0340     0.2960 c6         1 L2S      -0.100400
      9 C6          -1.8220    -0.8700    -0.2030 c          1 L2S       0.619100
     10 C7          -0.4780    -0.1600    -0.2100 c3         1 L2S      -0.067400
     11 C8           2.2650    -0.4460     0.1460 ca         1 L2S      -0.115000
     12 C9           3.4530    -1.1750     0.2360 ca         1 L2S      -0.107500
     13 C10          4.6780    -0.5330     0.2000 ca         1 L2S      -0.098000
     14 C11          4.7690     0.8530     0.0640 ca         1 L2S      -0.081300
     15 C12          3.5800     1.5670    -0.0270 ca         1 L2S      -0.098000
     16 C13          2.3420     0.9370     0.0140 ca         1 L2S      -0.107500
     17 C14          6.1010     1.5400    -0.0060 c3         1 L2S      -0.044800
     18 H11         -5.6160     1.7480    -0.3700 hc         1 L2S       0.042700
     19 H21         -5.4720     1.9730     1.3630 hc         1 L2S       0.042700
     20 H12         -4.5260    -0.2920     1.6280 hc         1 L2S       0.050450
     21 H22         -6.0160    -0.4110     0.7050 hc         1 L2S       0.050450
     22 H13         -4.7520    -0.5170    -1.4100 h1         1 L2S       0.056450
     23 H23         -4.1800    -1.7730    -0.3200 h1         1 L2S       0.056450
     24 H14         -1.8670     1.6500    -0.9550 h1         1 L2S       0.056450
     25 H24         -3.3980     1.4620    -1.7740 h1         1 L2S       0.056450
     26 H15         -3.6220     3.0990     0.0530 hc         1 L2S       0.050450
     27 H25         -3.0110     1.9360     1.2180 hc         1 L2S       0.050450
     28 H17         -0.4890     0.6690     0.5010 h1         1 L2S       0.079700
     29 H27         -0.2510     0.2510    -1.1960 h1         1 L2S       0.079700
     30 H9           3.4230    -2.2540     0.3330 ha         1 L2S       0.114500
     31 H10          5.5820    -1.1270     0.2760 ha         1 L2S       0.110000
     32 H112         3.6110     2.6460    -0.1270 ha         1 L2S       0.110000
     33 H113         1.4520     1.5480    -0.0530 ha         1 L2S       0.114500
     34 H114         6.5280     1.4710    -1.0090 hc         1 L2S       0.042033
     35 H214         6.0170     2.5980     0.2400 hc         1 L2S       0.042033
     36 H314         6.8200     1.0900     0.6790 hc         1 L2S       0.042033
@<TRIPOS>BOND
     1     1     5 1   
     2     1     8 1   
     3     1    18 1   
     4     1    19 1   
     5     2     6 1   
     6     2     7 1   
     7     2     9 1   
     8     3     9 2   
     9     4    10 1   
    10     4    11 1   
    11     5     6 1   
    12     5    20 1   
    13     5    21 1   
    14     6    22 1   
    15     6    23 1   
    16     7     8 1   
    17     7    24 1   
    18     7    25 1   
    19     8    26 1   
    20     8    27 1   
    21     9    10 1   
    22    10    28 1   
    23    10    29 1   
    24    11    12 ar  
    25    11    16 ar  
    26    12    13 ar  
    27    12    30 1   
    28    13    14 ar  
    29    13    31 1   
    30    14    15 ar  
    31    14    17 1   
    32    15    16 ar  
    33    15    32 1   
    34    16    33 1   
    35    17    34 1   
    36    17    35 1   
    37    17    36 1   
@<TRIPOS>SUBSTRUCTURE
     1 L2S         1 TEMP              0 ****  ****    0 ROOT
