@<TRIPOS>MOLECULE
L2U
  119   121     1     0     0
SMALL
No Charge or Current Charge


@<TRIPOS>ATOM
      1 O64         20.6110    32.6610   -16.7460 o          1 L2U      -0.742500
      2 C63         21.5910    31.9320   -16.7400 c          1 L2U       0.722000
      3 O62         21.9190    31.2320   -17.6860 o          1 L2U      -0.742500
      4 C61         22.4160    31.8350   -15.4440 c3         1 L2U      -0.207400
      5 C60         21.8450    30.7190   -14.5290 c3         1 L2U      -0.062400
      6 C59         22.6830    30.4200   -13.2490 c3         1 L2U       0.016700
      7 C58         22.6190    31.5670   -12.1920 c          1 L2U       0.592100
      8 O57         23.1180    32.6710   -12.3690 o          1 L2U      -0.600100
      9 N56         22.0200    31.2330   -10.9950 ns         1 L2U      -0.512900
     10 C55         21.9780    32.0770    -9.8010 c3         1 L2U       0.101000
     11 C54         23.2780    31.9920    -8.9700 c3         1 L2U      -0.098400
     12 C53         23.6820    30.5450    -8.5860 c3         1 L2U      -0.059400
     13 C52         24.9180    30.4480    -7.6560 c3         1 L2U      -0.167400
     14 C51         24.6310    30.9640    -6.2420 c          1 L2U       0.603100
     15 N50         24.1470    30.0560    -5.3660 nt         1 L2U      -0.619000
     16 O49         24.8070    32.1200    -5.8990 o          1 L2U      -0.602100
     17 N48         22.3810    29.0560   -12.6760 n          1 L2U      -0.401800
     18 C47         20.9510    28.6680   -12.5180 c3         1 L2U       0.087300
     19 C46         23.4050    28.0730   -12.5720 c          1 L2U       0.593100
     20 O45         24.5070    28.2590   -13.0810 o          1 L2U      -0.618100
     21 C44         23.1340    26.7970   -11.7090 c3         1 L2U       0.036700
     22 C43         23.0790    27.1670   -10.1970 c3         1 L2U      -0.082400
     23 C42         22.5310    26.0770    -9.2350 c3         1 L2U      -0.067700
     24 C41         22.7500    26.4920    -7.7620 c3         1 L2U      -0.083100
     25 C40         21.0390    25.7550    -9.4930 c3         1 L2U      -0.083100
     26 N39         24.1770    25.7760   -11.9650 ns         1 L2U      -0.497900
     27 C38         23.9620    24.4140   -12.0450 c          1 L2U       0.613100
     28 O37         22.8580    23.9040   -11.8920 o          1 L2U      -0.589100
     29 C36         25.3340    23.6930   -12.2650 c5         1 L2U       0.049700
     30 C32         25.8710    23.9080   -13.7180 c5         1 L2U      -0.075400
     31 N35         25.2660    22.2100   -12.1860 n          1 L2U      -0.379800
     32 C34         25.4090    21.5480   -13.5050 c5         1 L2U       0.113000
     33 C33         25.2620    22.7290   -14.5200 c5         1 L2U       0.144500
     34 N31         23.8760    22.9930   -14.9510 n8         1 L2U      -0.975200
     35 C30         25.1340    21.5330   -10.9540 c          1 L2U       0.629100
     36 O29         25.0330    22.1760    -9.9140 o          1 L2U      -0.635100
     37 C28         25.0410    19.9890   -10.9360 c3         1 L2U      -0.134400
     38 C27         25.7370    19.3030    -9.7260 c3         1 L2U      -0.036400
     39 C26         27.2760    19.1090    -9.8250 c3         1 L2U       0.041500
     40 C3          28.0520    20.4760    -9.9450 c          1 L2U       0.705000
     41 O2          28.5790    20.9350    -8.9400 o          1 L2U      -0.713000
     42 O1          28.1760    20.9730   -11.0570 o          1 L2U      -0.713000
     43 N25         27.5830    18.1230   -10.9190 n7         1 L2U      -0.823300
     44 S24         29.0860    17.3910   -11.0000 sy         1 L2U       1.135600
     45 O4          29.9940    18.3900   -11.5660 o          1 L2U      -0.572500
     46 O5          28.8430    16.0990   -11.6460 o          1 L2U      -0.572500
     47 C23         29.4780    17.1080    -9.2690 ca         1 L2U      -0.309500
     48 C6          30.3810    17.9510    -8.5970 ca         1 L2U       0.026500
     49 C22         28.8670    16.0460    -8.5790 ca         1 L2U       0.026500
     50 C21         29.1580    15.8280    -7.2200 ca         1 L2U      -0.170000
     51 C20         30.0620    16.6710    -6.5360 ca         1 L2U       0.012000
     52 C7          30.6690    17.7270    -7.2400 ca         1 L2U      -0.170000
     53 N19         30.4060    16.5180    -5.1640 ns         1 L2U      -0.136000
     54 C18         29.9630    15.6500    -4.1720 c          1 L2U       0.617700
     55 O8          29.1030    14.7960    -4.3590 o          1 L2U      -0.575100
     56 C17         30.6130    15.8220    -2.8070 ca         1 L2U      -0.127600
     57 C9          31.6130    16.7940    -2.5590 ca         1 L2U      -0.080000
     58 C16         30.2150    14.9890    -1.7370 ca         1 L2U      -0.080000
     59 C15         30.7920    15.1190    -0.4610 ca         1 L2U      -0.085500
     60 C14         31.7890    16.0900    -0.2150 ca         1 L2U      -0.140600
     61 C10         32.1890    16.9220    -1.2830 ca         1 L2U      -0.085500
     62 C13         32.4320    16.2570     1.1480 c          1 L2U       0.615700
     63 O12         33.2950    17.0900     1.3730 o          1 L2U      -0.599100
     64 N11         32.0280    15.4480     2.1520 nt         1 L2U      -0.608000
     65 H2          23.4490    31.5430   -15.6710 hc         1 L2U       0.018200
     66 H3          22.3340    32.7700   -14.8780 hc         1 L2U       0.018200
     67 H4          20.8160    30.9760   -14.2490 hc         1 L2U       0.064200
     68 H5          21.7870    29.7970   -15.1220 hc         1 L2U       0.064200
     69 H6          23.7310    30.4280   -13.5700 h1         1 L2U       0.085700
     70 H7          21.6680    30.2870   -10.9270 hn         1 L2U       0.315500
     71 H8          21.7960    33.1190   -10.0970 h1         1 L2U       0.048200
     72 H9          21.1320    31.7520    -9.1810 h1         1 L2U       0.048200
     73 H10         24.0970    32.4550    -9.5350 hc         1 L2U       0.043700
     74 H11         23.1420    32.5920    -8.0630 hc         1 L2U       0.043700
     75 H12         22.8300    30.0390    -8.1120 hc         1 L2U       0.036700
     76 H13         23.9080    29.9900    -9.5040 hc         1 L2U       0.036700
     77 H14         25.1720    29.3830    -7.5950 hc         1 L2U       0.080200
     78 H15         25.7480    31.0150    -8.0940 hc         1 L2U       0.080200
     79 H16         23.9360    30.3450    -4.4210 hn         1 L2U       0.302500
     80 H17         23.9940    29.1020    -5.6580 hn         1 L2U       0.302500
     81 H18         20.6680    27.9760   -13.3210 h1         1 L2U       0.042700
     82 H19         20.7820    28.1800   -11.5500 h1         1 L2U       0.042700
     83 H20         20.3000    29.5490   -12.5660 h1         1 L2U       0.042700
     84 H21         22.1670    26.3960   -12.0340 h1         1 L2U       0.098700
     85 H22         24.0920    27.4450    -9.8810 hc         1 L2U       0.039700
     86 H23         22.4700    28.0680   -10.0630 hc         1 L2U       0.039700
     87 H24         23.1060    25.1560    -9.3950 hc         1 L2U       0.093700
     88 H25         23.8140    26.6660    -7.5610 hc         1 L2U       0.027367
     89 H26         22.2010    27.4130    -7.5290 hc         1 L2U       0.027367
     90 H27         22.4030    25.7050    -7.0810 hc         1 L2U       0.027367
     91 H28         20.6830    24.9920    -8.7900 hc         1 L2U       0.027367
     92 H29         20.4190    26.6510    -9.3660 hc         1 L2U       0.027367
     93 H30         20.8810    25.3690   -10.5060 hc         1 L2U       0.027367
     94 H31         25.1240    26.1020   -12.1290 hn         1 L2U       0.325500
     95 H32         26.0420    24.0960   -11.5280 h1         1 L2U       0.071700
     96 H33         26.9650    23.8400   -13.7290 hc         1 L2U       0.058700
     97 H34         25.6190    24.8880   -14.1390 hc         1 L2U       0.058700
     98 H35         24.6480    20.7740   -13.6720 h1         1 L2U       0.061700
     99 H36         26.4000    21.0810   -13.5880 h1         1 L2U       0.061700
    100 H37         25.8360    22.5300   -15.4360 h1         1 L2U       0.020700
    101 H38         23.8780    23.7370   -15.6580 hn         1 L2U       0.387000
    102 H39         23.5180    22.1780   -15.4630 hn         1 L2U       0.387000
    103 H41         23.9710    19.7580   -10.8910 hc         1 L2U       0.053700
    104 H42         25.3770    19.5470   -11.8780 hc         1 L2U       0.053700
    105 H43         25.5060    19.8530    -8.8060 hc         1 L2U       0.051700
    106 H44         25.2860    18.3110    -9.5940 hc         1 L2U       0.051700
    107 H45         27.5640    18.6810    -8.8570 h1         1 L2U       0.049700
    108 H47         27.6060    18.6330   -11.8000 hn         1 L2U       0.503000
    109 H48         30.8590    18.7820    -9.1150 ha         1 L2U       0.134500
    110 H49         28.1620    15.3910    -9.0880 ha         1 L2U       0.134500
    111 H50         28.6690    14.9980    -6.7230 ha         1 L2U       0.121000
    112 H51         31.3680    18.3880    -6.7330 ha         1 L2U       0.121000
    113 H52         31.1100    17.1730    -4.8530 hn         1 L2U       0.150000
    114 H53         31.9600    17.4630    -3.3430 ha         1 L2U       0.133000
    115 H54         29.4490    14.2300    -1.8880 ha         1 L2U       0.133000
    116 H55         30.4490    14.4530     0.3270 ha         1 L2U       0.124000
    117 H56         32.9550    17.6800    -1.1280 ha         1 L2U       0.124000
    118 H57         32.4480    15.5510     3.0630 hn         1 L2U       0.313000
    119 H58         31.3170    14.7530     1.9910 hn         1 L2U       0.313000
@<TRIPOS>BOND
     1     1     2 1   
     2     2     3 1   
     3     2     4 1   
     4     4     5 1   
     5     4    65 1   
     6     4    66 1   
     7     5     6 1   
     8     5    67 1   
     9     5    68 1   
    10     6     7 1   
    11     6    17 1   
    12     6    69 1   
    13     7     8 2   
    14     7     9 1   
    15     9    10 1   
    16     9    70 1   
    17    10    11 1   
    18    10    71 1   
    19    10    72 1   
    20    11    12 1   
    21    11    73 1   
    22    11    74 1   
    23    12    13 1   
    24    12    75 1   
    25    12    76 1   
    26    13    14 1   
    27    13    77 1   
    28    13    78 1   
    29    14    15 1   
    30    14    16 2   
    31    15    79 1   
    32    15    80 1   
    33    17    18 1   
    34    17    19 1   
    35    18    81 1   
    36    18    82 1   
    37    18    83 1   
    38    19    20 2   
    39    19    21 1   
    40    21    22 1   
    41    21    26 1   
    42    21    84 1   
    43    22    23 1   
    44    22    85 1   
    45    22    86 1   
    46    23    24 1   
    47    23    25 1   
    48    23    87 1   
    49    24    88 1   
    50    24    89 1   
    51    24    90 1   
    52    25    91 1   
    53    25    92 1   
    54    25    93 1   
    55    26    27 1   
    56    26    94 1   
    57    27    28 2   
    58    27    29 1   
    59    29    30 1   
    60    29    31 1   
    61    29    95 1   
    62    30    33 1   
    63    30    96 1   
    64    30    97 1   
    65    31    32 1   
    66    31    35 1   
    67    32    33 1   
    68    32    98 1   
    69    32    99 1   
    70    33    34 1   
    71    33   100 1   
    72    34   101 1   
    73    34   102 1   
    74    35    36 2   
    75    35    37 1   
    76    37    38 1   
    77    37   103 1   
    78    37   104 1   
    79    38    39 1   
    80    38   105 1   
    81    38   106 1   
    82    39    40 1   
    83    39    43 1   
    84    39   107 1   
    85    40    41 1   
    86    40    42 1   
    87    43    44 1   
    88    43   108 1   
    89    44    45 2   
    90    44    46 2   
    91    44    47 1   
    92    47    48 ar  
    93    47    49 ar  
    94    48    52 ar  
    95    48   109 1   
    96    49    50 ar  
    97    49   110 1   
    98    50    51 ar  
    99    50   111 1   
   100    51    52 ar  
   101    51    53 1   
   102    52   112 1   
   103    53    54 1   
   104    53   113 1   
   105    54    55 2   
   106    54    56 1   
   107    56    57 ar  
   108    56    58 ar  
   109    57    61 ar  
   110    57   114 1   
   111    58    59 ar  
   112    58   115 1   
   113    59    60 ar  
   114    59   116 1   
   115    60    61 ar  
   116    60    62 1   
   117    61   117 1   
   118    62    63 2   
   119    62    64 1   
   120    64   118 1   
   121    64   119 1   
@<TRIPOS>SUBSTRUCTURE
     1 L2U         1 TEMP              0 ****  ****    0 ROOT
