@<TRIPOS>MOLECULE
L2U
  119   121     1     0     0
SMALL
abcg2


@<TRIPOS>ATOM
      1 O64         26.3590    32.9180   -13.9710 o          1 L2U      -0.742500
      2 C63         25.5370    31.9970   -14.1580 c          1 L2U       0.722000
      3 O62         25.1910    31.5180   -15.2570 o          1 L2U      -0.742500
      4 C61         24.9390    31.3570   -12.8890 c3         1 L2U      -0.207400
      5 C60         23.6770    30.5300   -13.1050 c3         1 L2U      -0.062400
      6 C59         23.1130    30.0030   -11.7780 c3         1 L2U       0.016700
      7 C58         21.9530    30.8650   -11.2440 c          1 L2U       0.592100
      8 O57         21.2210    31.5160   -11.9750 o          1 L2U      -0.600100
      9 N56         21.8240    30.8300    -9.9060 ns         1 L2U      -0.512900
     10 C55         20.8030    31.5400    -9.1740 c3         1 L2U       0.101000
     11 C54         21.3220    32.6090    -8.1900 c3         1 L2U      -0.098400
     12 C53         22.7910    32.5190    -7.7510 c3         1 L2U      -0.059400
     13 C52         23.6620    33.6760    -8.2540 c3         1 L2U      -0.167400
     14 C51         23.1700    35.0360    -7.8010 c          1 L2U       0.603100
     15 N50         23.3280    35.2850    -6.4890 nt         1 L2U      -0.619000
     16 O49         22.6650    35.8450    -8.5680 o          1 L2U      -0.602100
     17 N48         22.6840    28.6080   -11.8550 n          1 L2U      -0.401800
     18 C47         21.5110    28.3520   -12.6700 c3         1 L2U       0.087300
     19 C46         23.4590    27.6660   -11.2740 c          1 L2U       0.593100
     20 O45         24.4720    27.9480   -10.6510 o          1 L2U      -0.618100
     21 C44         23.0060    26.2060   -11.3450 c3         1 L2U       0.036700
     22 C43         21.8900    25.9510   -10.3190 c3         1 L2U      -0.082400
     23 C42         21.2440    24.5690   -10.4250 c3         1 L2U      -0.067700
     24 C41         20.3690    24.3110    -9.2020 c3         1 L2U      -0.083100
     25 C40         20.4270    24.4200   -11.7050 c3         1 L2U      -0.083100
     26 N39         24.1420    25.3550   -11.1090 ns         1 L2U      -0.497900
     27 C38         24.5290    24.3800   -11.9560 c          1 L2U       0.613100
     28 O37         23.9540    24.1280   -13.0000 o          1 L2U      -0.589100
     29 C36         25.7910    23.6500   -11.5110 c5         1 L2U       0.049700
     30 C32         27.0580    24.2150   -12.1750 c5         1 L2U      -0.075400
     31 N35         25.7720    22.2580   -11.9030 n          1 L2U      -0.379800
     32 C34         26.9320    21.8830   -12.7020 c5         1 L2U       0.113000
     33 C33         27.4580    23.2040   -13.2500 c5         1 L2U       0.144500
     34 N31         26.8020    23.5170   -14.5100 n8         1 L2U      -0.975200
     35 C30         24.8270    21.4460   -11.3950 c          1 L2U       0.629100
     36 O29         23.9500    21.8960   -10.6640 o          1 L2U      -0.635100
     37 C28         24.8540    19.9760   -11.7570 c3         1 L2U      -0.134400
     38 C27         24.5380    19.0690   -10.5620 c3         1 L2U      -0.036400
     39 C26         25.7740    18.4090    -9.9460 c3         1 L2U       0.041500
     40 C3          26.8310    19.4700    -9.5380 c          1 L2U       0.705000
     41 O2          26.4800    20.2560    -8.6460 o          1 L2U      -0.713000
     42 O1          27.9090    19.4580   -10.1700 o          1 L2U      -0.713000
     43 N25         26.3510    17.4530   -10.8970 n7         1 L2U      -0.823300
     44 S24         26.5670    15.8980   -10.4260 sy         1 L2U       1.135600
     45 O4          27.2670    15.2390   -11.5190 o          1 L2U      -0.572500
     46 O5          25.2740    15.3910    -9.9880 o          1 L2U      -0.572500
     47 C23         27.6370    15.9120    -9.0160 ca         1 L2U      -0.309500
     48 C6          29.0000    16.1190    -9.1970 ca         1 L2U       0.026500
     49 C22         27.1190    15.7630    -7.7400 ca         1 L2U       0.026500
     50 C21         27.9490    15.8170    -6.6310 ca         1 L2U      -0.170000
     51 C20         29.3180    16.0250    -6.8030 ca         1 L2U       0.012000
     52 C7          29.8290    16.1730    -8.0990 ca         1 L2U      -0.170000
     53 N19         30.2370    16.1200    -5.7610 ns         1 L2U      -0.136000
     54 C18         30.0550    15.8800    -4.4340 c          1 L2U       0.617700
     55 O8          29.0130    15.4680    -3.9590 o          1 L2U      -0.575100
     56 C17         31.2450    16.1520    -3.5690 ca         1 L2U      -0.127600
     57 C9          32.2560    17.0470    -3.9140 ca         1 L2U      -0.080000
     58 C16         31.3040    15.5160    -2.3310 ca         1 L2U      -0.080000
     59 C15         32.3680    15.7390    -1.4750 ca         1 L2U      -0.085500
     60 C14         33.3820    16.6270    -1.8270 ca         1 L2U      -0.140600
     61 C10         33.3050    17.2920    -3.0460 ca         1 L2U      -0.085500
     62 C13         34.5280    16.9470    -0.9160 c          1 L2U       0.615700
     63 O12         35.0300    18.0610    -0.9140 o          1 L2U      -0.599100
     64 N11         34.9460    15.9490    -0.1260 nt         1 L2U      -0.608000
     65 H2          25.7120    30.7260   -12.4340 hc         1 L2U       0.018200
     66 H3          24.7440    32.1450   -12.1530 hc         1 L2U       0.018200
     67 H4          22.9270    31.1370   -13.6130 hc         1 L2U       0.064200
     68 H5          23.8880    29.6920   -13.7690 hc         1 L2U       0.064200
     69 H6          23.9020    30.0410   -11.0250 h1         1 L2U       0.085700
     70 H7          22.4710    30.2620    -9.3850 hn         1 L2U       0.315500
     71 H8          20.1760    32.0330    -9.9110 h1         1 L2U       0.048200
     72 H9          20.1670    30.8180    -8.6550 h1         1 L2U       0.048200
     73 H10         21.1390    33.5850    -8.6440 hc         1 L2U       0.043700
     74 H11         20.6850    32.5810    -7.3060 hc         1 L2U       0.043700
     75 H12         22.8500    32.4610    -6.6620 hc         1 L2U       0.036700
     76 H13         23.2640    31.6010    -8.1050 hc         1 L2U       0.036700
     77 H14         24.6840    33.5260    -7.8960 hc         1 L2U       0.080200
     78 H15         23.6940    33.6690    -9.3440 hc         1 L2U       0.080200
     79 H16         22.9480    36.1240    -6.0800 hn         1 L2U       0.302500
     80 H17         23.6870    34.5900    -5.8580 hn         1 L2U       0.302500
     81 H18         21.3250    27.2920   -12.7990 h1         1 L2U       0.042700
     82 H19         20.6160    28.7820   -12.2210 h1         1 L2U       0.042700
     83 H20         21.6350    28.7860   -13.6640 h1         1 L2U       0.042700
     84 H21         22.6550    25.9620   -12.3470 h1         1 L2U       0.098700
     85 H22         22.3150    26.0840    -9.3190 hc         1 L2U       0.039700
     86 H23         21.1130    26.7140   -10.4240 hc         1 L2U       0.039700
     87 H24         22.0350    23.8170   -10.4360 hc         1 L2U       0.093700
     88 H25         20.9410    24.3950    -8.2770 hc         1 L2U       0.027367
     89 H26         19.5460    25.0280    -9.1520 hc         1 L2U       0.027367
     90 H27         19.9340    23.3110    -9.2330 hc         1 L2U       0.027367
     91 H28         19.9710    23.4300   -11.7610 hc         1 L2U       0.027367
     92 H29         19.6230    25.1590   -11.7390 hc         1 L2U       0.027367
     93 H30         21.0340    24.5450   -12.6020 hc         1 L2U       0.027367
     94 H31         24.6360    25.4690   -10.2380 hn         1 L2U       0.325500
     95 H32         25.8780    23.7330   -10.4220 h1         1 L2U       0.071700
     96 H33         27.8470    24.2980   -11.4260 hc         1 L2U       0.058700
     97 H34         26.9130    25.2130   -12.5920 hc         1 L2U       0.058700
     98 H35         26.6570    21.2030   -13.5100 h1         1 L2U       0.061700
     99 H36         27.6860    21.3890   -12.0860 h1         1 L2U       0.061700
    100 H37         28.5500    23.1610   -13.3310 h1         1 L2U       0.020700
    101 H38         27.1870    24.3780   -14.8820 hn         1 L2U       0.387000
    102 H39         27.0200    22.8020   -15.1920 hn         1 L2U       0.387000
    103 H41         24.1000    19.8350   -12.5370 hc         1 L2U       0.053700
    104 H42         25.7990    19.6870   -12.2130 hc         1 L2U       0.053700
    105 H43         24.0330    19.6460    -9.7870 hc         1 L2U       0.051700
    106 H44         23.8420    18.2830   -10.8560 hc         1 L2U       0.051700
    107 H45         25.4340    17.8820    -9.0500 h1         1 L2U       0.049700
    108 H47         27.2170    17.8540   -11.2630 hn         1 L2U       0.503000
    109 H48         29.4190    16.2370   -10.1870 ha         1 L2U       0.134500
    110 H49         26.0600    15.6010    -7.5900 ha         1 L2U       0.134500
    111 H50         27.5200    15.7020    -5.6520 ha         1 L2U       0.121000
    112 H51         30.8900    16.3330    -8.2440 ha         1 L2U       0.121000
    113 H52         31.1790    16.3250    -6.0600 hn         1 L2U       0.150000
    114 H53         32.2300    17.6010    -4.8450 ha         1 L2U       0.133000
    115 H54         30.5160    14.8380    -2.0340 ha         1 L2U       0.133000
    116 H55         32.3830    15.2330    -0.5180 ha         1 L2U       0.124000
    117 H56         34.0680    18.0060    -3.3240 ha         1 L2U       0.124000
    118 H57         35.7100    16.1030     0.5150 hn         1 L2U       0.313000
    119 H58         34.6010    15.0080    -0.2160 hn         1 L2U       0.313000
@<TRIPOS>BOND
     1     1     2 1   
     2     2     3 1   
     3     2     4 1   
     4     4     5 1   
     5     4    65 1   
     6     4    66 1   
     7     5     6 1   
     8     5    67 1   
     9     5    68 1   
    10     6     7 1   
    11     6    17 1   
    12     6    69 1   
    13     7     8 2   
    14     7     9 1   
    15     9    10 1   
    16     9    70 1   
    17    10    11 1   
    18    10    71 1   
    19    10    72 1   
    20    11    12 1   
    21    11    73 1   
    22    11    74 1   
    23    12    13 1   
    24    12    75 1   
    25    12    76 1   
    26    13    14 1   
    27    13    77 1   
    28    13    78 1   
    29    14    15 1   
    30    14    16 2   
    31    15    79 1   
    32    15    80 1   
    33    17    18 1   
    34    17    19 1   
    35    18    81 1   
    36    18    82 1   
    37    18    83 1   
    38    19    20 2   
    39    19    21 1   
    40    21    22 1   
    41    21    26 1   
    42    21    84 1   
    43    22    23 1   
    44    22    85 1   
    45    22    86 1   
    46    23    24 1   
    47    23    25 1   
    48    23    87 1   
    49    24    88 1   
    50    24    89 1   
    51    24    90 1   
    52    25    91 1   
    53    25    92 1   
    54    25    93 1   
    55    26    27 1   
    56    26    94 1   
    57    27    28 2   
    58    27    29 1   
    59    29    30 1   
    60    29    31 1   
    61    29    95 1   
    62    30    33 1   
    63    30    96 1   
    64    30    97 1   
    65    31    32 1   
    66    31    35 1   
    67    32    33 1   
    68    32    98 1   
    69    32    99 1   
    70    33    34 1   
    71    33   100 1   
    72    34   101 1   
    73    34   102 1   
    74    35    36 2   
    75    35    37 1   
    76    37    38 1   
    77    37   103 1   
    78    37   104 1   
    79    38    39 1   
    80    38   105 1   
    81    38   106 1   
    82    39    40 1   
    83    39    43 1   
    84    39   107 1   
    85    40    41 1   
    86    40    42 1   
    87    43    44 1   
    88    43   108 1   
    89    44    45 2   
    90    44    46 2   
    91    44    47 1   
    92    47    48 ar  
    93    47    49 ar  
    94    48    52 ar  
    95    48   109 1   
    96    49    50 ar  
    97    49   110 1   
    98    50    51 ar  
    99    50   111 1   
   100    51    52 ar  
   101    51    53 1   
   102    52   112 1   
   103    53    54 1   
   104    53   113 1   
   105    54    55 2   
   106    54    56 1   
   107    56    57 ar  
   108    56    58 ar  
   109    57    61 ar  
   110    57   114 1   
   111    58    59 ar  
   112    58   115 1   
   113    59    60 ar  
   114    59   116 1   
   115    60    61 ar  
   116    60    62 1   
   117    61   117 1   
   118    62    63 2   
   119    62    64 1   
   120    64   118 1   
   121    64   119 1   
@<TRIPOS>SUBSTRUCTURE
     1 L2U         1 TEMP              0 ****  ****    0 ROOT
