@<TRIPOS>MOLECULE
L2V
   68    72     1     0     0
SMALL
abcg2


@<TRIPOS>ATOM
      1 C02        148.8080   149.6710   124.9150 ca         1 L2V       0.295900
      2 C03        147.4760   149.9590   124.5070 ca         1 L2V       0.295900
      3 C05        148.2710   151.1560   122.7320 ca         1 L2V       0.225000
      4 C06        149.6090   150.8640   123.1430 ca         1 L2V       0.219000
      5 C07        148.0570   151.9410   121.5690 ca         1 L2V      -0.077000
      6 C08        149.1240   152.4210   120.8590 ca         1 L2V      -0.084000
      7 C09        150.4650   152.1370   121.2670 ca         1 L2V       0.042000
      8 C10        150.6910   151.3670   122.3970 ca         1 L2V      -0.053000
      9 C11        151.5540   152.6440   120.5100 cg         1 L2V      -0.109000
     10 C12        152.4780   153.0740   119.8630 ch         1 L2V      -0.088000
     11 C13        153.5730   153.5830   119.1160 ca         1 L2V       0.029000
     12 C14        154.8790   153.4300   119.5980 ca         1 L2V      -0.081000
     13 C15        155.9690   153.9060   118.8790 ca         1 L2V      -0.090300
     14 C16        155.7420   154.5520   117.6630 ca         1 L2V      -0.103000
     15 C17        154.4490   154.7160   117.1760 ca         1 L2V      -0.107000
     16 C18        153.3650   154.2350   117.8910 ca         1 L2V      -0.082000
     17 C19        157.3730   153.6770   119.3750 c3         1 L2V      -0.045100
     18 C20        157.6910   152.1700   119.5070 c3         1 L2V       0.036700
     19 C21        159.1810   151.9940   119.8040 c          1 L2V       0.589100
     20 C24        158.7250   151.9640   122.2820 c3         1 L2V       0.109000
     21 C25        158.2840   150.5640   122.6980 c3         1 L2V      -0.123100
     22 C29        155.9400   150.0600   116.9240 ca         1 L2V      -0.134600
     23 C30        155.4470   151.0290   116.0770 ca         1 L2V      -0.049000
     24 C31        155.8740   148.7020   116.5560 ca         1 L2V      -0.059000
     25 C32        155.3420   148.3370   115.3450 ca         1 L2V      -0.081000
     26 C33        154.8210   149.3090   114.4680 ca         1 L2V       0.242000
     27 C34        154.8650   150.6700   114.8460 ca         1 L2V       0.217000
     28 C36        153.7880   149.8850   112.4980 ca         1 L2V       0.327300
     29 C37        153.1780   149.4890   111.1900 c3         1 L2V      -0.150400
     30 C38        153.8290   151.2740   112.8860 ca         1 L2V       0.321300
     31 C40        153.2560   152.3280   111.9900 c3         1 L2V      -0.144400
     32 N01        149.8540   150.1080   124.2550 nb         1 L2V      -0.619000
     33 N04        147.2060   150.6850   123.4370 nb         1 L2V      -0.622000
     34 N23        159.5630   151.9720   121.0910 ns         1 L2V      -0.504900
     35 N26        157.3240   151.4740   118.2930 ns         1 L2V      -0.482900
     36 N35        154.2720   148.9440   113.2770 nb         1 L2V      -0.639000
     37 N39        154.3550   151.6350   114.0260 nb         1 L2V      -0.639000
     38 O22        159.9900   151.9250   118.8770 o          1 L2V      -0.608100
     39 O28        156.1440   149.8010   119.2800 o          1 L2V      -0.602100
     40 H1         148.9820   149.0570   125.7950 h4         1 L2V       0.031100
     41 H2         146.6390   149.5740   125.0810 h4         1 L2V       0.031100
     42 H3         147.0370   152.1550   121.2670 ha         1 L2V       0.137000
     43 H4         148.9640   153.0230   119.9710 ha         1 L2V       0.127000
     44 H5         151.7000   151.1370   122.7260 ha         1 L2V       0.142000
     45 H6         155.0300   152.9230   120.5430 ha         1 L2V       0.122000
     46 H7         156.5860   154.9140   117.0860 ha         1 L2V       0.116000
     47 H8         154.2920   155.2090   116.2240 ha         1 L2V       0.122000
     48 H9         152.3590   154.3500   117.5120 ha         1 L2V       0.123000
     49 H10        158.0840   154.1270   118.6860 hc         1 L2V       0.063700
     50 H11        157.5230   154.1460   120.3500 hc         1 L2V       0.063700
     51 H12        157.0940   151.7360   120.3000 h1         1 L2V       0.092700
     52 H13        159.3080   152.4210   123.0790 h1         1 L2V       0.046200
     53 H14        157.8630   152.6090   122.1240 h1         1 L2V       0.046200
     54 H15        157.6940   150.6150   123.6120 hc         1 L2V       0.049700
     55 H16        157.6790   150.1030   121.9230 hc         1 L2V       0.049700
     56 H17        159.1470   149.9290   122.8870 hc         1 L2V       0.049700
     57 H18        155.4620   152.0740   116.3510 ha         1 L2V       0.136000
     58 H19        156.2610   147.9580   117.2360 ha         1 L2V       0.137000
     59 H20        155.3050   147.3020   115.0400 ha         1 L2V       0.136000
     60 H21        153.2060   148.3910   111.0850 hc         1 L2V       0.058700
     61 H22        152.1270   149.8370   111.1270 hc         1 L2V       0.058700
     62 H23        153.7230   149.9550   110.3510 hc         1 L2V       0.058700
     63 H24        153.3880   153.3060   112.4420 hc         1 L2V       0.056033
     64 H25        153.7460   152.3200   111.0130 hc         1 L2V       0.056033
     65 H26        152.1910   152.1550   111.8110 hc         1 L2V       0.056033
     66 H27        160.5560   151.8600   121.2310 hn         1 L2V       0.316500
     67 H28        157.5910   151.8910   117.4130 hn         1 L2V       0.330500
     68 C27        156.4780   150.4240   118.2720 c          1 L2V       0.615700
@<TRIPOS>BOND
     1     1     2 ar  
     2     1    32 ar  
     3     1    40 1   
     4     2    33 ar  
     5     2    41 1   
     6     3     4 ar  
     7     3     5 ar  
     8     3    33 ar  
     9     4     8 ar  
    10     4    32 ar  
    11     5     6 ar  
    12     5    42 1   
    13     6     7 ar  
    14     6    43 1   
    15     7     8 ar  
    16     7     9 1   
    17     8    44 1   
    18     9    10 3   
    19    10    11 1   
    20    11    12 ar  
    21    11    16 ar  
    22    12    13 ar  
    23    12    45 1   
    24    13    14 ar  
    25    13    17 1   
    26    14    15 ar  
    27    14    46 1   
    28    15    16 ar  
    29    15    47 1   
    30    16    48 1   
    31    17    18 1   
    32    17    49 1   
    33    17    50 1   
    34    18    19 1   
    35    18    35 1   
    36    18    51 1   
    37    19    34 1   
    38    19    38 2   
    39    20    21 1   
    40    20    34 1   
    41    20    52 1   
    42    20    53 1   
    43    21    54 1   
    44    21    55 1   
    45    21    56 1   
    46    22    23 ar  
    47    22    24 ar  
    48    22    68 1   
    49    23    27 ar  
    50    23    57 1   
    51    24    25 ar  
    52    24    58 1   
    53    25    26 ar  
    54    25    59 1   
    55    26    27 ar  
    56    26    36 ar  
    57    27    37 ar  
    58    28    29 1   
    59    28    30 ar  
    60    28    36 ar  
    61    29    60 1   
    62    29    61 1   
    63    29    62 1   
    64    30    31 1   
    65    30    37 ar  
    66    31    63 1   
    67    31    64 1   
    68    31    65 1   
    69    34    66 1   
    70    35    67 1   
    71    35    68 1   
    72    39    68 2   
@<TRIPOS>SUBSTRUCTURE
     1 L2V         1 TEMP              0 ****  ****    0 ROOT
