@<TRIPOS>MOLECULE
L2V
   68    72     1     0     0
SMALL
No Charge or Current Charge


@<TRIPOS>ATOM
      1 C02        149.4090   149.6200   126.8290 ca         1 L2V       0.295900
      2 C03        148.0710   150.0800   126.8780 ca         1 L2V       0.295900
      3 C05        148.4190   151.3290   124.9640 ca         1 L2V       0.225000
      4 C06        149.7780   150.8620   124.9140 ca         1 L2V       0.219000
      5 C07        147.9630   152.2140   123.9700 ca         1 L2V      -0.077000
      6 C08        148.8150   152.6420   122.9380 ca         1 L2V      -0.084000
      7 C09        150.1420   152.1870   122.8870 ca         1 L2V       0.042000
      8 C10        150.6150   151.3030   123.8720 ca         1 L2V      -0.053000
      9 C11        151.0120   152.6230   121.8350 cg         1 L2V      -0.109000
     10 C12        151.7630   152.9880   120.9440 ch         1 L2V      -0.088000
     11 C13        152.6520   153.4030   119.9120 ca         1 L2V       0.029000
     12 C14        154.0440   153.2990   120.0960 ca         1 L2V      -0.081000
     13 C15        154.9300   153.7020   119.0780 ca         1 L2V      -0.090300
     14 C16        154.4130   154.2140   117.8720 ca         1 L2V      -0.103000
     15 C17        153.0240   154.3200   117.6860 ca         1 L2V      -0.107000
     16 C18        152.1440   153.9150   118.7040 ca         1 L2V      -0.082000
     17 C19        156.4350   153.5650   119.2770 c3         1 L2V      -0.045100
     18 C20        156.9420   152.1080   119.1030 c3         1 L2V       0.036700
     19 C21        158.4860   152.0230   119.3110 c          1 L2V       0.589100
     20 C24        158.2490   151.7920   121.8290 c3         1 L2V       0.109000
     21 C25        158.0380   150.2800   122.0160 c3         1 L2V      -0.123100
     22 C29        155.1990   150.5180   116.0210 ca         1 L2V      -0.134600
     23 C30        156.0280   151.0030   114.9800 ca         1 L2V      -0.049000
     24 C31        154.0870   149.7210   115.6760 ca         1 L2V      -0.059000
     25 C32        153.8130   149.4140   114.3330 ca         1 L2V      -0.081000
     26 C33        154.6330   149.8910   113.2980 ca         1 L2V       0.242000
     27 C34        155.7660   150.7040   113.6290 ca         1 L2V       0.217000
     28 C36        155.1640   150.0640   111.0530 ca         1 L2V       0.327300
     29 C37        154.8130   149.6970   109.6170 c3         1 L2V      -0.150400
     30 C38        156.2930   150.8750   111.3810 ca         1 L2V       0.321300
     31 C40        157.2320   151.4340   110.3200 c3         1 L2V      -0.144400
     32 N01        150.2710   150.0050   125.8500 nb         1 L2V      -0.619000
     33 N04        147.5660   150.9350   125.9490 nb         1 L2V      -0.622000
     34 N23        158.9840   152.0970   120.5970 ns         1 L2V      -0.504900
     35 N26        156.5780   151.5930   117.7620 ns         1 L2V      -0.482900
     36 N35        154.3340   149.5720   112.0100 nb         1 L2V      -0.639000
     37 N39        156.5940   151.1950   112.6670 nb         1 L2V      -0.639000
     38 O22        159.2710   151.9550   118.3750 o          1 L2V      -0.608100
     39 O28        154.7220   150.4350   118.3700 o          1 L2V      -0.602100
     40 H1         149.7930   148.9340   127.5830 h4         1 L2V       0.031100
     41 H2         147.3980   149.7580   127.6710 h4         1 L2V       0.031100
     42 H3         146.9370   152.5710   124.0010 ha         1 L2V       0.137000
     43 H4         148.4410   153.3270   122.1790 ha         1 L2V       0.127000
     44 H5         151.6420   150.9510   123.8330 ha         1 L2V       0.142000
     45 H6         154.4370   152.8980   121.0270 ha         1 L2V       0.122000
     46 H7         155.0850   154.5240   117.0750 ha         1 L2V       0.116000
     47 H8         152.6290   154.7140   116.7520 ha         1 L2V       0.122000
     48 H9         151.0700   153.9980   118.5530 ha         1 L2V       0.123000
     49 H10        156.9690   154.2120   118.5700 hc         1 L2V       0.063700
     50 H11        156.7070   153.9300   120.2740 hc         1 L2V       0.063700
     51 H12        156.4670   151.4750   119.8610 h1         1 L2V       0.092700
     52 H13        158.8270   152.1810   122.6780 h1         1 L2V       0.046200
     53 H14        157.2800   152.3070   121.8270 h1         1 L2V       0.046200
     54 H15        157.5020   150.0860   122.9530 hc         1 L2V       0.049700
     55 H16        157.4530   149.8540   121.1930 hc         1 L2V       0.049700
     56 H17        159.0020   149.7590   122.0600 hc         1 L2V       0.049700
     57 H18        156.8910   151.6250   115.1960 ha         1 L2V       0.136000
     58 H19        153.4260   149.3340   116.4490 ha         1 L2V       0.137000
     59 H20        152.9510   148.7980   114.0910 ha         1 L2V       0.136000
     60 H21        153.9150   149.0700   109.5630 hc         1 L2V       0.058700
     61 H22        154.6250   150.5960   109.0190 hc         1 L2V       0.058700
     62 H23        155.6320   149.1420   109.1450 hc         1 L2V       0.058700
     63 H24        158.0390   152.0310   110.7620 hc         1 L2V       0.056033
     64 H25        157.6960   150.6250   109.7450 hc         1 L2V       0.056033
     65 H26        156.6890   152.0790   109.6200 hc         1 L2V       0.056033
     66 H27        159.9950   152.1260   120.6570 hn         1 L2V       0.316500
     67 H28        157.1770   151.8380   116.9850 hn         1 L2V       0.330500
     68 C27        155.4600   150.8340   117.4800 c          1 L2V       0.615700
@<TRIPOS>BOND
     1     1     2 ar  
     2     1    32 ar  
     3     1    40 1   
     4     2    33 ar  
     5     2    41 1   
     6     3     4 ar  
     7     3     5 ar  
     8     3    33 ar  
     9     4     8 ar  
    10     4    32 ar  
    11     5     6 ar  
    12     5    42 1   
    13     6     7 ar  
    14     6    43 1   
    15     7     8 ar  
    16     7     9 1   
    17     8    44 1   
    18     9    10 3   
    19    10    11 1   
    20    11    12 ar  
    21    11    16 ar  
    22    12    13 ar  
    23    12    45 1   
    24    13    14 ar  
    25    13    17 1   
    26    14    15 ar  
    27    14    46 1   
    28    15    16 ar  
    29    15    47 1   
    30    16    48 1   
    31    17    18 1   
    32    17    49 1   
    33    17    50 1   
    34    18    19 1   
    35    18    35 1   
    36    18    51 1   
    37    19    34 1   
    38    19    38 2   
    39    20    21 1   
    40    20    34 1   
    41    20    52 1   
    42    20    53 1   
    43    21    54 1   
    44    21    55 1   
    45    21    56 1   
    46    22    23 ar  
    47    22    24 ar  
    48    22    68 1   
    49    23    27 ar  
    50    23    57 1   
    51    24    25 ar  
    52    24    58 1   
    53    25    26 ar  
    54    25    59 1   
    55    26    27 ar  
    56    26    36 ar  
    57    27    37 ar  
    58    28    29 1   
    59    28    30 ar  
    60    28    36 ar  
    61    29    60 1   
    62    29    61 1   
    63    29    62 1   
    64    30    31 1   
    65    30    37 ar  
    66    31    63 1   
    67    31    64 1   
    68    31    65 1   
    69    34    66 1   
    70    35    67 1   
    71    35    68 1   
    72    39    68 2   
@<TRIPOS>SUBSTRUCTURE
     1 L2V         1 TEMP              0 ****  ****    0 ROOT
