@<TRIPOS>MOLECULE
L2W
   61    64     1     0     0
SMALL
bcc


@<TRIPOS>ATOM
      1 N           14.2250    -8.5250    -8.3260 na         1 L2W      -0.115100
      2 C           13.8130    -9.7920    -8.4280 cc         1 L2W      -0.008600
      3 O           13.3740   -12.5800    -7.7040 o          1 L2W      -0.546100
      4 C1          12.9500   -10.2480    -9.5470 c3         1 L2W      -0.037800
      5 C10         15.5420    -7.0010    -6.9670 c          1 L2W       0.715700
      6 C11         17.2970    -5.8250    -5.6690 ca         1 L2W       0.027600
      7 C12         18.2820    -6.0660    -4.6840 ca         1 L2W       0.142100
      8 C13         19.4330    -7.7010    -3.3930 c3         1 L2W       0.129700
      9 C14         18.9790    -5.0100    -4.1170 ca         1 L2W      -0.216000
     10 C15         18.7170    -3.7050    -4.5120 ca         1 L2W      -0.018000
     11 C16         17.7540    -3.4750    -5.4770 ca         1 L2W      -0.316500
     12 C17         18.2220    -2.4010    -8.5500 c6         1 L2W       0.188800
     13 C18         18.9420    -1.7900    -9.7430 c6         1 L2W      -0.073400
     14 C19         20.4380    -1.6840    -9.4830 c6         1 L2W      -0.074400
     15 C2          14.3660   -10.4880    -7.3510 cd         1 L2W      -0.268600
     16 C20         20.6910    -0.9210    -8.1910 c6         1 L2W      -0.073400
     17 C21         19.9390    -1.5480    -7.0270 c6         1 L2W       0.188800
     18 C22         17.0410    -4.5210    -6.0590 ca         1 L2W      -0.039000
     19 C3          14.2330   -11.9240    -7.1380 c          1 L2W       0.617700
     20 C4          15.2550   -12.5700    -6.2360 c3         1 L2W      -0.172400
     21 C5          15.0500   -12.2730    -4.7460 c3         1 L2W      -0.062400
     22 C6          14.8730   -10.7960    -4.3990 c3         1 L2W      -0.073400
     23 C7          15.7330    -9.8410    -5.2320 c3         1 L2W      -0.017100
     24 C8          15.1290    -9.5640    -6.5780 cd         1 L2W      -0.045300
     25 C9          15.0280    -8.3480    -7.2250 cc         1 L2W      -0.218900
     26 N1          16.6490    -6.9480    -6.1780 ns         1 L2W      -0.461100
     27 N2          18.5080    -1.6120    -7.3460 n3         1 L2W      -0.706500
     28 O1          15.0100    -6.0180    -7.4620 o          1 L2W      -0.598100
     29 O2          18.4640    -7.3540    -4.3670 os         1 L2W      -0.337900
     30 O3          16.1250    -1.7580    -6.5900 o          1 L2W      -0.602800
     31 O4          17.8910    -0.9000    -5.0270 o          1 L2W      -0.602800
     32 S           17.4800    -1.8310    -6.0660 sy         1 L2W       1.291200
     33 H1          13.9970    -7.7930    -8.9820 hn         1 L2W       0.317700
     34 H2          13.3800   -11.1140   -10.0480 hc         1 L2W       0.061033
     35 H3          11.9650   -10.5430    -9.1870 hc         1 L2W       0.061033
     36 H4          12.8200    -9.4570   -10.2840 hc         1 L2W       0.061033
     37 H5          19.4080    -8.7840    -3.3120 h1         1 L2W       0.047700
     38 H6          20.4350    -7.3880    -3.6940 h1         1 L2W       0.047700
     39 H7          19.1960    -7.2650    -2.4210 h1         1 L2W       0.047700
     40 H8          19.7270    -5.1810    -3.3570 ha         1 L2W       0.141000
     41 H9          19.2640    -2.8940    -4.0530 ha         1 L2W       0.155000
     42 H11         18.5500    -3.4410    -8.4120 h1         1 L2W       0.053450
     43 H12         18.5240    -0.8000    -9.9440 hc         1 L2W       0.052450
     44 H13         18.7410    -2.4110   -10.6180 hc         1 L2W       0.052450
     45 H14         20.8640    -2.6890    -9.4010 hc         1 L2W       0.041200
     46 H15         20.9390    -1.1960   -10.3210 hc         1 L2W       0.041200
     47 H16         21.7540    -0.9110    -7.9460 hc         1 L2W       0.052450
     48 H17         20.3750     0.1200    -8.3020 hc         1 L2W       0.052450
     49 H18         20.3340    -2.5540    -6.8300 h1         1 L2W       0.053450
     50 H19         20.0840    -0.9480    -6.1310 h1         1 L2W       0.053450
     51 H20         16.2880    -4.3250    -6.8050 ha         1 L2W       0.189000
     52 H21         15.2350   -13.6490    -6.3950 hc         1 L2W       0.060700
     53 H22         16.2470   -12.2180    -6.5350 hc         1 L2W       0.060700
     54 H23         14.1880   -12.8350    -4.3780 hc         1 L2W       0.044200
     55 H24         15.9220   -12.6660    -4.2190 hc         1 L2W       0.044200
     56 H25         15.1150   -10.6590    -3.3440 hc         1 L2W       0.048200
     57 H26         13.8260   -10.5020    -4.5080 hc         1 L2W       0.048200
     58 H27         16.7510   -10.2380    -5.3270 hc         1 L2W       0.051200
     59 H28         15.8220    -8.9060    -4.6780 hc         1 L2W       0.051200
     60 H29         17.0840    -7.8270    -5.9450 hn         1 L2W       0.340500
     61 H10         17.1490    -2.4120    -8.7300 h1         1 L2W       0.053450
@<TRIPOS>BOND
     1     1     2 1   
     2     1    25 1   
     3     1    33 1   
     4     2     4 1   
     5     2    15 2   
     6     3    19 2   
     7     4    34 1   
     8     4    35 1   
     9     4    36 1   
    10     5    25 1   
    11     5    26 1   
    12     5    28 2   
    13     6     7 ar  
    14     6    18 ar  
    15     6    26 1   
    16     7     9 ar  
    17     7    29 1   
    18     8    29 1   
    19     8    37 1   
    20     8    38 1   
    21     8    39 1   
    22     9    10 ar  
    23     9    40 1   
    24    10    11 ar  
    25    10    41 1   
    26    11    18 ar  
    27    11    32 1   
    28    12    13 1   
    29    12    27 1   
    30    12    42 1   
    31    12    61 1   
    32    13    14 1   
    33    13    43 1   
    34    13    44 1   
    35    14    16 1   
    36    14    45 1   
    37    14    46 1   
    38    15    19 1   
    39    15    24 1   
    40    16    17 1   
    41    16    47 1   
    42    16    48 1   
    43    17    27 1   
    44    17    49 1   
    45    17    50 1   
    46    18    51 1   
    47    19    20 1   
    48    20    21 1   
    49    20    52 1   
    50    20    53 1   
    51    21    22 1   
    52    21    54 1   
    53    21    55 1   
    54    22    23 1   
    55    22    56 1   
    56    22    57 1   
    57    23    24 1   
    58    23    58 1   
    59    23    59 1   
    60    24    25 2   
    61    26    60 1   
    62    27    32 1   
    63    30    32 2   
    64    31    32 2   
@<TRIPOS>SUBSTRUCTURE
     1 L2W         1 TEMP              0 ****  ****    0 ROOT
