@<TRIPOS>MOLECULE
L2W
   61    64     1     0     0
SMALL
No Charge or Current Charge


@<TRIPOS>ATOM
      1 N           14.0630    -8.5460    -8.4940 na         1 L2W      -0.064000
      2 C           13.7630    -9.9010    -8.5200 cc         1 L2W      -0.059300
      3 O           13.5920   -12.6840    -7.6060 o          1 L2W      -0.546100
      4 C1          12.9180   -10.5410    -9.5920 c3         1 L2W      -0.037800
      5 C10         15.4690    -6.8740    -7.1640 c          1 L2W       0.648700
      6 C11         17.2000    -5.7330    -5.6320 ca         1 L2W      -0.065000
      7 C12         18.2000    -6.0600    -4.6910 ca         1 L2W       0.142100
      8 C13         19.3600    -7.8350    -3.4140 c3         1 L2W       0.152900
      9 C14         18.9840    -5.0410    -4.1090 ca         1 L2W      -0.198000
     10 C15         18.7750    -3.6990    -4.4610 ca         1 L2W       0.000000
     11 C16         17.7790    -3.3660    -5.3970 ca         1 L2W      -0.316500
     12 C17         18.0450    -2.1960    -8.4350 c6         1 L2W       0.188800
     13 C18         18.8520    -1.7960    -9.6940 c6         1 L2W      -0.073400
     14 C19         20.3670    -2.0040    -9.4720 c6         1 L2W      -0.074400
     15 C2          14.4300   -10.4510    -7.4510 cd         1 L2W      -0.268600
     16 C20         20.8170    -1.2660    -8.1920 c6         1 L2W      -0.073400
     17 C21         19.9530    -1.6840    -6.9780 c6         1 L2W       0.188800
     18 C22         16.9870    -4.3800    -5.9760 ca         1 L2W      -0.021000
     19 C3          14.4270   -11.9150    -7.1440 c          1 L2W       0.617700
     20 C4          15.5270   -12.4560    -6.2250 c3         1 L2W      -0.172400
     21 C5          15.3000   -12.1210    -4.7380 c3         1 L2W      -0.062400
     22 C6          14.9450   -10.6420    -4.4660 c3         1 L2W      -0.073400
     23 C7          15.7060    -9.6090    -5.3370 c3         1 L2W      -0.017100
     24 C8          15.0810    -9.4120    -6.7170 cd         1 L2W      -0.045300
     25 C9          14.9100    -8.2320    -7.4280 cc         1 L2W      -0.269600
     26 N1          16.4430    -6.8080    -6.1820 ns         1 L2W      -0.135000
     27 N2          18.5050    -1.4520    -7.2310 n3         1 L2W      -0.706500
     28 O1          15.1070    -5.9060    -7.8220 o          1 L2W      -0.598100
     29 O2          18.3770    -7.3950    -4.3670 os         1 L2W      -0.361100
     30 O3          16.1310    -1.4650    -6.3160 o          1 L2W      -0.532000
     31 O4          18.0710    -0.7580    -4.8220 o          1 L2W      -0.532000
     32 S           17.5120    -1.6410    -5.8540 sy         1 L2W       1.149600
     33 H1          13.7310    -7.8730    -9.1790 hn         1 L2W       0.368000
     34 H2          13.4670   -11.3460   -10.0940 hc         1 L2W       0.061033
     35 H3          12.0030   -10.9680    -9.1640 hc         1 L2W       0.061033
     36 H4          12.6210    -9.8140   -10.3570 hc         1 L2W       0.061033
     37 H5          19.3250    -8.9270    -3.3100 h1         1 L2W       0.047700
     38 H6          20.3710    -7.5580    -3.7390 h1         1 L2W       0.047700
     39 H7          19.1730    -7.3940    -2.4270 h1         1 L2W       0.047700
     40 H8          19.7590    -5.2690    -3.3840 ha         1 L2W       0.123000
     41 H9          19.3900    -2.9250    -4.0040 ha         1 L2W       0.137000
     42 H11         18.1440    -3.2810    -8.2790 h1         1 L2W       0.053450
     43 H12         18.6530    -0.7430    -9.9350 hc         1 L2W       0.052450
     44 H13         18.5140    -2.3860   -10.5560 hc         1 L2W       0.052450
     45 H14         20.5860    -3.0770    -9.3800 hc         1 L2W       0.041200
     46 H15         20.9320    -1.6380   -10.3400 hc         1 L2W       0.041200
     47 H16         21.8750    -1.4780    -7.9870 hc         1 L2W       0.052450
     48 H17         20.7370    -0.1810    -8.3400 hc         1 L2W       0.052450
     49 H18         20.1410    -2.7450    -6.7570 h1         1 L2W       0.053450
     50 H19         20.2930    -1.1080    -6.1050 h1         1 L2W       0.053450
     51 H20         16.2140    -4.1000    -6.6870 ha         1 L2W       0.171000
     52 H21         15.6220   -13.5420    -6.3470 hc         1 L2W       0.060700
     53 H22         16.4670   -11.9690    -6.5070 hc         1 L2W       0.060700
     54 H23         14.5010   -12.7560    -4.3370 hc         1 L2W       0.044200
     55 H24         16.2110   -12.3780    -4.1820 hc         1 L2W       0.044200
     56 H25         15.1490   -10.4340    -3.4090 hc         1 L2W       0.048200
     57 H26         13.8650   -10.4930    -4.5980 hc         1 L2W       0.048200
     58 H27         16.7680    -9.8720    -5.4110 hc         1 L2W       0.051200
     59 H28         15.6520    -8.6790    -4.7650 hc         1 L2W       0.051200
     60 H29         16.6780    -7.7050    -5.7810 hn         1 L2W       0.174000
     61 H10         16.9830    -1.9960    -8.6390 h1         1 L2W       0.053450
@<TRIPOS>BOND
     1     1     2 1   
     2     1    25 1   
     3     1    33 1   
     4     2     4 1   
     5     2    15 2   
     6     3    19 2   
     7     4    34 1   
     8     4    35 1   
     9     4    36 1   
    10     5    25 1   
    11     5    26 1   
    12     5    28 2   
    13     6     7 ar  
    14     6    18 ar  
    15     6    26 1   
    16     7     9 ar  
    17     7    29 1   
    18     8    29 1   
    19     8    37 1   
    20     8    38 1   
    21     8    39 1   
    22     9    10 ar  
    23     9    40 1   
    24    10    11 ar  
    25    10    41 1   
    26    11    18 ar  
    27    11    32 1   
    28    12    13 1   
    29    12    27 1   
    30    12    42 1   
    31    12    61 1   
    32    13    14 1   
    33    13    43 1   
    34    13    44 1   
    35    14    16 1   
    36    14    45 1   
    37    14    46 1   
    38    15    19 1   
    39    15    24 1   
    40    16    17 1   
    41    16    47 1   
    42    16    48 1   
    43    17    27 1   
    44    17    49 1   
    45    17    50 1   
    46    18    51 1   
    47    19    20 1   
    48    20    21 1   
    49    20    52 1   
    50    20    53 1   
    51    21    22 1   
    52    21    54 1   
    53    21    55 1   
    54    22    23 1   
    55    22    56 1   
    56    22    57 1   
    57    23    24 1   
    58    23    58 1   
    59    23    59 1   
    60    24    25 2   
    61    26    60 1   
    62    27    32 1   
    63    30    32 2   
    64    31    32 2   
@<TRIPOS>SUBSTRUCTURE
     1 L2W         1 TEMP              0 ****  ****    0 ROOT
