@<TRIPOS>MOLECULE
L2X
   65    68     1     0     0
SMALL
abcg2


@<TRIPOS>ATOM
      1 N1          16.0320   -22.5480     1.3160 ns         1 L2X      -0.484900
      2 C4          20.3180   -23.6520     0.6160 ca         1 L2X      -0.102000
      3 C5          21.4290   -24.4440     0.3670 ca         1 L2X      -0.109500
      4 C6          18.3120   -23.0180     1.9840 c3         1 L2X      -0.040100
      5 C7          17.1280   -23.4610     1.1140 c3         1 L2X       0.038700
      6 C8          16.7100   -24.8840     1.4930 c          1 L2X       0.596100
      7 C10         16.2210   -27.8980    -0.2910 ca         1 L2X      -0.115300
      8 C13         14.8700   -29.1450    -2.3960 ca         1 L2X      -0.108000
      9 C15         15.1310   -27.2780    -0.8970 ca         1 L2X      -0.097500
     10 C17         13.8770   -21.5730     0.8660 cx         1 L2X       0.020300
     11 C20         11.0910   -18.0340     0.6800 c3         1 L2X       0.106000
     12 C21         11.4780   -16.5790     0.9650 c3         1 L2X      -0.052100
     13 C22         11.8590   -16.3570     2.4010 ca         1 L2X      -0.123300
     14 C24         11.2210   -15.9330     4.7030 ca         1 L2X      -0.173500
     15 C26         13.5300   -16.3100     4.1590 ca         1 L2X      -0.173500
     16 N           17.1560   -25.8390     0.6650 ns         1 L2X      -0.488900
     17 C           21.7750   -25.4560     1.2540 ca         1 L2X      -0.105000
     18 O           16.0540   -25.0940     2.5000 o          1 L2X      -0.602100
     19 C1          21.0040   -25.6680     2.3890 ca         1 L2X      -0.109500
     20 C11         16.6260   -29.1460    -0.7530 ca         1 L2X      -0.097500
     21 C12         15.9550   -29.7690    -1.7980 ca         1 L2X      -0.112000
     22 C14         14.4610   -27.8970    -1.9420 ca         1 L2X      -0.112000
     23 C16         14.9090   -22.6310     0.5960 c          1 L2X       0.616100
     24 C18         14.2140   -20.1650     0.6130 cx         1 L2X       0.004300
     25 C19         13.1590   -19.2110     0.1240 c          1 L2X       0.608100
     26 C2          19.8920   -24.8720     2.6340 ca         1 L2X      -0.102000
     27 C23         10.8910   -16.0900     3.3650 ca         1 L2X      -0.069500
     28 C25         12.5480   -16.0450     5.1100 ca         1 L2X       0.139100
     29 C27         13.1810   -16.4610     2.8260 ca         1 L2X      -0.069500
     30 C3          19.5350   -23.8580     1.7500 ca         1 L2X      -0.094300
     31 C9          16.9420   -27.2510     0.8660 c3         1 L2X       0.145300
     32 N2          12.1540   -18.9710     0.9700 ns         1 L2X      -0.489900
     33 O1          14.7050   -23.4730    -0.2650 o          1 L2X      -0.586100
     34 O2          14.1120   -20.6730     1.9250 op         1 L2X      -0.431000
     35 O3          13.2640   -18.7350    -0.9960 o          1 L2X      -0.587100
     36 O4          12.9340   -15.9050     6.3960 oh         1 L2X      -0.533100
     37 H18         16.0880   -21.8820     2.0720 hn         1 L2X       0.340500
     38 H6          20.0570   -22.8610    -0.0790 ha         1 L2X       0.116000
     39 H7          22.0280   -24.2700    -0.5180 ha         1 L2X       0.115500
     40 H9          18.5260   -21.9730     1.7480 hc         1 L2X       0.063200
     41 H8          18.0170   -23.0580     3.0360 hc         1 L2X       0.063200
     42 H           17.4330   -23.4250     0.0630 h1         1 L2X       0.071700
     43 H15         14.3480   -29.6240    -3.2150 ha         1 L2X       0.111000
     44 H17         14.8070   -26.3000    -0.5590 ha         1 L2X       0.121000
     45 H1          12.8480   -21.9040     0.7330 h1         1 L2X       0.127700
     46 H20         10.7950   -18.1410    -0.3630 h1         1 L2X       0.058200
     47 H21         10.2310   -18.3160     1.2890 h1         1 L2X       0.058200
     48 H22         12.2990   -16.2920     0.3040 hc         1 L2X       0.061200
     49 H23         10.6250   -15.9510     0.6980 hc         1 L2X       0.061200
     50 H25         10.4430   -15.7190     5.4280 ha         1 L2X       0.121000
     51 H26         14.5660   -16.3930     4.4660 ha         1 L2X       0.121000
     52 H10         17.6930   -25.5650    -0.1440 hn         1 L2X       0.319500
     53 H3          22.6430   -26.0740     1.0620 ha         1 L2X       0.115000
     54 H4          21.2690   -26.4510     3.0870 ha         1 L2X       0.115500
     55 H13         17.4790   -29.6350    -0.2960 ha         1 L2X       0.121000
     56 H14         16.2860   -30.7380    -2.1480 ha         1 L2X       0.113000
     57 H16         13.6160   -27.4020    -2.4050 ha         1 L2X       0.113000
     58 H2          15.2190   -19.9230     0.2720 h1         1 L2X       0.120700
     59 H5          19.2930   -25.0420     3.5210 ha         1 L2X       0.116000
     60 H24          9.8520   -15.9990     3.0680 ha         1 L2X       0.112500
     61 H27         13.9630   -16.6580     2.1000 ha         1 L2X       0.112500
     62 H11         16.3630   -27.3720     1.7810 h1         1 L2X       0.063200
     63 H12         17.8990   -27.7510     1.0310 h1         1 L2X       0.063200
     64 H19         12.2130   -19.3470     1.9040 hn         1 L2X       0.334500
     65 H28         12.1700   -15.7360     6.9600 ho         1 L2X       0.465000
@<TRIPOS>BOND
     1     1     5 1   
     2     1    23 1   
     3     1    37 1   
     4     2     3 ar  
     5     2    30 ar  
     6     2    38 1   
     7     3    17 ar  
     8     3    39 1   
     9     4     5 1   
    10     4    30 1   
    11     4    40 1   
    12     4    41 1   
    13     5     6 1   
    14     5    42 1   
    15     6    16 1   
    16     6    18 2   
    17     7     9 ar  
    18     7    20 ar  
    19     7    31 1   
    20     8    21 ar  
    21     8    22 ar  
    22     8    43 1   
    23     9    22 ar  
    24     9    44 1   
    25    10    23 1   
    26    10    24 1   
    27    10    34 1   
    28    10    45 1   
    29    11    12 1   
    30    11    32 1   
    31    11    46 1   
    32    11    47 1   
    33    12    13 1   
    34    12    48 1   
    35    12    49 1   
    36    13    27 ar  
    37    13    29 ar  
    38    14    27 ar  
    39    14    28 ar  
    40    14    50 1   
    41    15    28 ar  
    42    15    29 ar  
    43    15    51 1   
    44    16    31 1   
    45    16    52 1   
    46    17    19 ar  
    47    17    53 1   
    48    19    26 ar  
    49    19    54 1   
    50    20    21 ar  
    51    20    55 1   
    52    21    56 1   
    53    22    57 1   
    54    23    33 2   
    55    24    25 1   
    56    24    34 1   
    57    24    58 1   
    58    25    32 1   
    59    25    35 2   
    60    26    30 ar  
    61    26    59 1   
    62    27    60 1   
    63    28    36 1   
    64    29    61 1   
    65    31    62 1   
    66    31    63 1   
    67    32    64 1   
    68    36    65 1   
@<TRIPOS>SUBSTRUCTURE
     1 L2X         1 TEMP              0 ****  ****    0 ROOT
