@<TRIPOS>MOLECULE
L2X
   65    68     1     0     0
SMALL
No Charge or Current Charge


@<TRIPOS>ATOM
      1 N1          15.0260   -22.3390    -0.0770 ns         1 L2X      -0.484900
      2 C4          18.3880   -24.7830    -1.7130 ca         1 L2X      -0.102000
      3 C5          19.1990   -25.8690    -2.0880 ca         1 L2X      -0.109500
      4 C6          17.3440   -23.2780     0.0560 c3         1 L2X      -0.040100
      5 C7          15.8440   -23.5610    -0.2450 c3         1 L2X       0.038700
      6 C8          15.2670   -24.7180     0.6290 c          1 L2X       0.596100
      7 C10         16.7280   -28.1070     1.1600 ca         1 L2X      -0.115300
      8 C13         18.9640   -29.8250     1.0920 ca         1 L2X      -0.108000
      9 C15         17.0310   -28.8330    -0.0090 ca         1 L2X      -0.097500
     10 C17         14.0730   -20.1390    -0.5230 cx         1 L2X       0.020300
     11 C20         12.2440   -16.1530     0.9550 c3         1 L2X       0.106000
     12 C21         12.7010   -15.3590     2.1980 c3         1 L2X      -0.052100
     13 C22         12.3680   -16.0690     3.5060 ca         1 L2X      -0.123300
     14 C24         10.7540   -16.6540     5.2410 ca         1 L2X      -0.173500
     15 C26         13.0400   -17.4690     5.3890 ca         1 L2X      -0.173500
     16 N           15.8580   -25.9460     0.4390 ns         1 L2X      -0.488900
     17 C           19.8970   -26.5960    -1.1100 ca         1 L2X      -0.105000
     18 O           14.3480   -24.5620     1.4260 o          1 L2X      -0.602100
     19 C1          19.7900   -26.2330     0.2430 ca         1 L2X      -0.109500
     20 C11         17.5530   -28.2440     2.2940 ca         1 L2X      -0.097500
     21 C12         18.6670   -29.1020     2.2600 ca         1 L2X      -0.112000
     22 C14         18.1450   -29.6900    -0.0430 ca         1 L2X      -0.112000
     23 C16         14.9970   -21.2670    -0.9420 c          1 L2X       0.616100
     24 C18         14.5330   -19.2170     0.5780 cx         1 L2X       0.004300
     25 C19         14.1360   -17.7560     0.4920 c          1 L2X       0.608100
     26 C2          18.9800   -25.1480     0.6190 ca         1 L2X      -0.102000
     27 C23         11.0660   -15.9960     4.0380 ca         1 L2X      -0.069500
     28 C25         11.7420   -17.3900     5.9150 ca         1 L2X       0.139100
     29 C27         13.3550   -16.8100     4.1870 ca         1 L2X      -0.069500
     30 C3          18.2690   -24.4200    -0.3560 ca         1 L2X      -0.094300
     31 C9          15.5400   -27.1580     1.1840 c3         1 L2X       0.145300
     32 N2          12.8450   -17.4880     0.8880 ns         1 L2X      -0.489900
     33 O1          15.6610   -21.2310    -1.9690 o          1 L2X      -0.586100
     34 O2          13.4810   -20.1990     0.8080 op         1 L2X      -0.431000
     35 O3          14.9010   -16.8850     0.0990 o          1 L2X      -0.587100
     36 O4          11.4470   -18.0320     7.0810 oh         1 L2X      -0.533100
     37 H18         14.4140   -22.2700     0.7310 hn         1 L2X       0.340500
     38 H6          17.8490   -24.2290    -2.4780 ha         1 L2X       0.116000
     39 H7          19.2830   -26.1480    -3.1360 ha         1 L2X       0.115500
     40 H9          17.6540   -22.3720    -0.4770 hc         1 L2X       0.063200
     41 H8          17.4560   -23.0490     1.1240 hc         1 L2X       0.063200
     42 H           15.7510   -23.8840    -1.2900 h1         1 L2X       0.071700
     43 H15         19.8270   -30.4870     1.0650 ha         1 L2X       0.111000
     44 H17         16.4060   -28.7300    -0.8940 ha         1 L2X       0.121000
     45 H1          13.4240   -19.7490    -1.3060 h1         1 L2X       0.127700
     46 H20         12.5060   -15.5940     0.0460 h1         1 L2X       0.058200
     47 H21         11.1520   -16.2630     0.9770 h1         1 L2X       0.058200
     48 H22         13.7790   -15.1710     2.1260 hc         1 L2X       0.061200
     49 H23         12.2230   -14.3720     2.1760 hc         1 L2X       0.061200
     50 H25          9.7450   -16.5880     5.6410 ha         1 L2X       0.121000
     51 H26         13.8040   -18.0400     5.9110 ha         1 L2X       0.121000
     52 H10         16.6410   -25.9780    -0.2030 hn         1 L2X       0.319500
     53 H3          20.5200   -27.4400    -1.3990 ha         1 L2X       0.115000
     54 H4          20.3270   -26.7990     1.0010 ha         1 L2X       0.115500
     55 H13         17.3370   -27.6820     3.2010 ha         1 L2X       0.121000
     56 H14         19.3020   -29.2040     3.1380 ha         1 L2X       0.113000
     57 H16         18.3760   -30.2460    -0.9490 ha         1 L2X       0.113000
     58 H2          15.4780   -19.4200     1.0800 h1         1 L2X       0.120700
     59 H5          18.8940   -24.8860     1.6720 ha         1 L2X       0.116000
     60 H24         10.2950   -15.4280     3.5200 ha         1 L2X       0.112500
     61 H27         14.3640   -16.8770     3.7860 ha         1 L2X       0.112500
     62 H11         14.6650   -27.6400     0.7270 h1         1 L2X       0.063200
     63 H12         15.2870   -26.8980     2.2210 h1         1 L2X       0.063200
     64 H19         12.3060   -18.2870     1.2020 hn         1 L2X       0.334500
     65 H28         10.5040   -17.8670     7.2950 ho         1 L2X       0.465000
@<TRIPOS>BOND
     1     1     5 1   
     2     1    23 1   
     3     1    37 1   
     4     2     3 ar  
     5     2    30 ar  
     6     2    38 1   
     7     3    17 ar  
     8     3    39 1   
     9     4     5 1   
    10     4    30 1   
    11     4    40 1   
    12     4    41 1   
    13     5     6 1   
    14     5    42 1   
    15     6    16 1   
    16     6    18 2   
    17     7     9 ar  
    18     7    20 ar  
    19     7    31 1   
    20     8    21 ar  
    21     8    22 ar  
    22     8    43 1   
    23     9    22 ar  
    24     9    44 1   
    25    10    23 1   
    26    10    24 1   
    27    10    34 1   
    28    10    45 1   
    29    11    12 1   
    30    11    32 1   
    31    11    46 1   
    32    11    47 1   
    33    12    13 1   
    34    12    48 1   
    35    12    49 1   
    36    13    27 ar  
    37    13    29 ar  
    38    14    27 ar  
    39    14    28 ar  
    40    14    50 1   
    41    15    28 ar  
    42    15    29 ar  
    43    15    51 1   
    44    16    31 1   
    45    16    52 1   
    46    17    19 ar  
    47    17    53 1   
    48    19    26 ar  
    49    19    54 1   
    50    20    21 ar  
    51    20    55 1   
    52    21    56 1   
    53    22    57 1   
    54    23    33 2   
    55    24    25 1   
    56    24    34 1   
    57    24    58 1   
    58    25    32 1   
    59    25    35 2   
    60    26    30 ar  
    61    26    59 1   
    62    27    60 1   
    63    28    36 1   
    64    29    61 1   
    65    31    62 1   
    66    31    63 1   
    67    32    64 1   
    68    36    65 1   
@<TRIPOS>SUBSTRUCTURE
     1 L2X         1 TEMP              0 ****  ****    0 ROOT
