@<TRIPOS>MOLECULE
L2Y
   28    27     1     0     0
SMALL
abcg2


@<TRIPOS>ATOM
      1 C01          4.4240   -50.3040   -30.8080 c3         1 L2Y      -0.111600
      2 C02          3.7490   -51.1970   -29.7790 c3         1 L2Y       0.222300
      3 C04          1.9300   -52.4130   -30.9260 c3         1 L2Y       0.222300
      4 C05          0.8490   -52.7860   -29.9240 c3         1 L2Y      -0.111600
      5 C06          3.9550   -53.5930   -30.3140 c2         1 L2Y       0.821200
      6 C07          5.3290   -53.5630   -29.7010 c3         1 L2Y      -0.224400
      7 C11          3.2820   -56.7870   -32.4920 c3         1 L2Y      -0.490100
      8 N03          3.2660   -52.4500   -30.3440 nh         1 L2Y      -0.738600
      9 N08          3.3910   -54.6580   -30.8050 ne         1 L2Y      -1.136900
     10 O12          5.2850   -56.6130   -30.6020 o          1 L2Y      -0.750000
     11 P09          3.8890   -56.1940   -30.9100 py         1 L2Y       1.684600
     12 F1           2.8820   -56.9390   -29.8960 f          1 L2Y      -0.346400
     13 H1           4.7000   -49.3540   -30.3510 hc         1 L2Y       0.044367
     14 H2           5.3310   -50.7630   -31.2030 hc         1 L2Y       0.044367
     15 H3           3.7610   -50.0910   -31.6470 hc         1 L2Y       0.044367
     16 H4           4.4200   -51.3960   -28.9460 h1         1 L2Y       0.055700
     17 H5           2.8870   -50.6830   -29.3500 h1         1 L2Y       0.055700
     18 H6           1.7650   -51.4010   -31.3000 h1         1 L2Y       0.055700
     19 H7           1.8990   -53.0830   -31.7820 h1         1 L2Y       0.055700
     20 H8          -0.1320   -52.7340   -30.3970 hc         1 L2Y       0.044367
     21 H9           0.9940   -53.8020   -29.5580 hc         1 L2Y       0.044367
     22 H10          0.8420   -52.1080   -29.0690 hc         1 L2Y       0.044367
     23 H12          5.2490   -53.5380   -28.6130 hc         1 L2Y       0.077700
     24 H13          5.8890   -54.4500   -29.9750 hc         1 L2Y       0.077700
     25 H14          5.8960   -52.6870   -30.0090 hc         1 L2Y       0.077700
     26 H15          3.4350   -57.8620   -32.5790 hc         1 L2Y       0.079033
     27 H16          2.2240   -56.5650   -32.6200 hc         1 L2Y       0.079033
     28 H17          3.8350   -56.2970   -33.2930 hc         1 L2Y       0.079033
@<TRIPOS>BOND
     1     1     2 1   
     2     1    13 1   
     3     1    14 1   
     4     1    15 1   
     5     2     8 1   
     6     2    16 1   
     7     2    17 1   
     8     3     4 1   
     9     3     8 1   
    10     3    18 1   
    11     3    19 1   
    12     4    20 1   
    13     4    21 1   
    14     4    22 1   
    15     5     6 1   
    16     5     8 1   
    17     5     9 2   
    18     6    23 1   
    19     6    24 1   
    20     6    25 1   
    21     7    11 1   
    22     7    26 1   
    23     7    27 1   
    24     7    28 1   
    25     9    11 1   
    26    10    11 2   
    27    11    12 1   
@<TRIPOS>SUBSTRUCTURE
     1 L2Y         1 TEMP              0 ****  ****    0 ROOT
