@<TRIPOS>MOLECULE
L2Y
   28    27     1     0     0
SMALL
No Charge or Current Charge


@<TRIPOS>ATOM
      1 C01          4.7690   -50.4590   -30.6140 c3         1 L2Y      -0.111600
      2 C02          3.6390   -51.0940   -29.7830 c3         1 L2Y       0.222300
      3 C04          1.7850   -52.2970   -30.9590 c3         1 L2Y       0.222300
      4 C05          0.6810   -52.9010   -30.0720 c3         1 L2Y      -0.111600
      5 C06          3.8620   -53.5670   -30.3310 c2         1 L2Y       0.821200
      6 C07          5.1440   -53.6580   -29.5110 c3         1 L2Y      -0.224400
      7 C11          3.1570   -56.9320   -32.3500 c3         1 L2Y      -0.490100
      8 N03          3.1370   -52.3750   -30.3440 nh         1 L2Y      -0.738600
      9 N08          3.4510   -54.5030   -31.1040 ne         1 L2Y      -1.136900
     10 O12          5.6010   -55.8240   -31.7640 o          1 L2Y      -0.750000
     11 P09          4.1910   -55.8920   -31.2840 py         1 L2Y       1.684600
     12 F1           4.0410   -56.7000   -29.9400 f          1 L2Y      -0.346400
     13 H1           5.0640   -49.4980   -30.1770 hc         1 L2Y       0.044367
     14 H2           5.6540   -51.1040   -30.6460 hc         1 L2Y       0.044367
     15 H3           4.4340   -50.2790   -31.6420 hc         1 L2Y       0.044367
     16 H4           3.9660   -51.2210   -28.7430 h1         1 L2Y       0.055700
     17 H5           2.8230   -50.3600   -29.7370 h1         1 L2Y       0.055700
     18 H6           1.5150   -51.2500   -31.1530 h1         1 L2Y       0.055700
     19 H7           1.7750   -52.7910   -31.9400 h1         1 L2Y       0.055700
     20 H8          -0.2960   -52.7960   -30.5590 hc         1 L2Y       0.044367
     21 H9           0.8630   -53.9670   -29.8930 hc         1 L2Y       0.044367
     22 H10          0.6410   -52.3870   -29.1050 hc         1 L2Y       0.044367
     23 H12          5.2180   -52.8950   -28.7340 hc         1 L2Y       0.077700
     24 H13          5.2240   -54.6060   -28.9720 hc         1 L2Y       0.077700
     25 H14          6.0240   -53.5520   -30.1560 hc         1 L2Y       0.077700
     26 H15          3.5960   -57.9320   -32.4080 hc         1 L2Y       0.079033
     27 H16          2.1510   -56.9880   -31.9240 hc         1 L2Y       0.079033
     28 H17          3.1160   -56.4830   -33.3470 hc         1 L2Y       0.079033
@<TRIPOS>BOND
     1     1     2 1   
     2     1    13 1   
     3     1    14 1   
     4     1    15 1   
     5     2     8 1   
     6     2    16 1   
     7     2    17 1   
     8     3     4 1   
     9     3     8 1   
    10     3    18 1   
    11     3    19 1   
    12     4    20 1   
    13     4    21 1   
    14     4    22 1   
    15     5     6 1   
    16     5     8 1   
    17     5     9 2   
    18     6    23 1   
    19     6    24 1   
    20     6    25 1   
    21     7    11 1   
    22     7    26 1   
    23     7    27 1   
    24     7    28 1   
    25     9    11 1   
    26    10    11 2   
    27    11    12 1   
@<TRIPOS>SUBSTRUCTURE
     1 L2Y         1 TEMP              0 ****  ****    0 ROOT
