@<TRIPOS>MOLECULE
L2Z
   60    64     1     0     0
SMALL
abcg2


@<TRIPOS>ATOM
      1 C1          13.3450   -10.4980   -10.0950 c3         1 L2Z      -0.038800
      2 C2          14.6430   -10.6750    -7.8220 cc         1 L2Z      -0.268600
      3 C3          14.5470   -12.1150    -7.6090 c          1 L2Z       0.617700
      4 C4          15.5350   -12.7220    -6.6440 c3         1 L2Z      -0.172400
      5 C5          15.2370   -12.4230    -5.1700 c3         1 L2Z      -0.062400
      6 C6          14.9990   -10.9500    -4.8420 c3         1 L2Z      -0.073400
      7 C7          15.8710    -9.9740    -5.6380 c3         1 L2Z      -0.017100
      8 C8          15.3260    -9.7210    -7.0130 cc         1 L2Z      -0.043300
      9 C10         15.6570    -7.1450    -7.3870 c          1 L2Z       0.649700
     10 C12         18.2270    -6.1090    -4.9550 ca         1 L2Z       0.144100
     11 C13         19.3800    -7.7040    -3.6170 c3         1 L2Z       0.152900
     12 C15         18.5350    -3.7330    -4.7290 ca         1 L2Z      -0.001000
     13 N           14.4810    -8.7230    -8.8140 na         1 L2Z      -0.063000
     14 C           14.1240   -10.0040    -8.9310 cd         1 L2Z      -0.057300
     15 O           13.7470   -12.8030    -8.2220 o          1 L2Z      -0.546100
     16 C11         17.2850    -5.9010    -5.9900 ca         1 L2Z      -0.065000
     17 C14         18.8400    -5.0290    -4.3380 ca         1 L2Z      -0.199000
     18 C16         17.6160    -3.5350    -5.7440 ca         1 L2Z      -0.326500
     19 C17         18.4420    -2.3760    -8.7510 cy         1 L2Z       0.213300
     20 C18         19.9430    -2.0620    -8.7680 cy         1 L2Z      -0.159000
     21 C19         20.5400    -1.1660    -9.8520 cy         1 L2Z       0.158100
     22 C20         21.0030    -3.0640    -9.2090 cy         1 L2Z       0.158100
     23 C21         19.8010    -1.5720    -7.3250 cy         1 L2Z       0.213300
     24 C22         16.9870    -4.6050    -6.3780 ca         1 L2Z      -0.023000
     25 C9          15.2150    -8.5110    -7.6710 cd         1 L2Z      -0.271600
     26 N1          16.7190    -7.0470    -6.5420 ns         1 L2Z      -0.135000
     27 N2          18.3420    -1.5750    -7.5200 nq         1 L2Z      -0.715500
     28 O1          15.1090    -6.1830    -7.9060 o          1 L2Z      -0.598100
     29 O3          21.4930    -2.1710   -10.2170 oq         1 L2Z      -0.446000
     30 O4          17.6100    -0.9700    -5.2380 o          1 L2Z      -0.526500
     31 O5          15.9590    -1.8860    -6.9170 o          1 L2Z      -0.526500
     32 S           17.2790    -1.8970    -6.3090 sy         1 L2Z       1.153600
     33 H1          13.8460   -11.3370   -10.5760 hc         1 L2Z       0.061367
     34 H2          12.3590   -10.8450    -9.7890 hc         1 L2Z       0.061367
     35 H3          13.2140    -9.7100   -10.8360 hc         1 L2Z       0.061367
     36 H4          15.5580   -13.8020    -6.7950 hc         1 L2Z       0.060700
     37 H5          16.5300   -12.3420    -6.8890 hc         1 L2Z       0.060700
     38 H6          14.3730   -13.0080    -4.8470 hc         1 L2Z       0.044200
     39 H7          16.0890   -12.7880    -4.5930 hc         1 L2Z       0.044200
     40 H8          15.1840   -10.8000    -3.7770 hc         1 L2Z       0.048200
     41 H9          13.9500   -10.6880    -5.0060 hc         1 L2Z       0.048200
     42 H10         16.9020   -10.3430    -5.6830 hc         1 L2Z       0.050700
     43 H11         15.9090    -9.0350    -5.0840 hc         1 L2Z       0.050700
     44 H12         19.3920    -8.7870    -3.5410 h1         1 L2Z       0.048367
     45 H13         20.3840    -7.3520    -3.8650 h1         1 L2Z       0.048367
     46 H14         19.0750    -7.2820    -2.6580 h1         1 L2Z       0.048367
     47 H15         19.0090    -2.9030    -4.2240 ha         1 L2Z       0.139000
     48 H16         14.2610    -8.0010    -9.4850 hn         1 L2Z       0.368000
     49 H17         19.5520    -5.1760    -3.5390 ha         1 L2Z       0.124000
     50 H18         17.8420    -1.9990    -9.5790 h1         1 L2Z       0.070450
     51 H19         18.2410    -3.4430    -8.6070 h1         1 L2Z       0.070450
     52 H20         21.0130    -0.2490    -9.4870 h1         1 L2Z       0.059200
     53 H21         19.8600    -0.9120   -10.6710 h1         1 L2Z       0.059200
     54 H22         20.6160    -4.0000    -9.6230 h1         1 L2Z       0.059200
     55 H23         21.7560    -3.2960    -8.4500 h1         1 L2Z       0.059200
     56 H24         20.1540    -2.3130    -6.5990 h1         1 L2Z       0.070450
     57 H25         20.2170    -0.5960    -7.0800 h1         1 L2Z       0.070450
     58 H26         16.2640    -4.4340    -7.1590 ha         1 L2Z       0.173000
     59 H27         17.1820    -7.9070    -6.2920 hn         1 L2Z       0.175000
     60 O2          18.4510    -7.3890    -4.6420 os         1 L2Z      -0.360100
@<TRIPOS>BOND
     1     1    14 1   
     2     1    33 1   
     3     1    34 1   
     4     1    35 1   
     5     2     3 1   
     6     2     8 1   
     7     2    14 2   
     8     3     4 1   
     9     3    15 2   
    10     4     5 1   
    11     4    36 1   
    12     4    37 1   
    13     5     6 1   
    14     5    38 1   
    15     5    39 1   
    16     6     7 1   
    17     6    40 1   
    18     6    41 1   
    19     7     8 1   
    20     7    42 1   
    21     7    43 1   
    22     8    25 2   
    23     9    25 1   
    24     9    26 1   
    25     9    28 2   
    26    10    16 ar  
    27    10    17 ar  
    28    10    60 1   
    29    11    44 1   
    30    11    45 1   
    31    11    46 1   
    32    11    60 1   
    33    12    17 ar  
    34    12    18 ar  
    35    12    47 1   
    36    13    14 1   
    37    13    25 1   
    38    13    48 1   
    39    16    24 ar  
    40    16    26 1   
    41    17    49 1   
    42    18    24 ar  
    43    18    32 1   
    44    19    20 1   
    45    19    27 1   
    46    19    50 1   
    47    19    51 1   
    48    20    21 1   
    49    20    22 1   
    50    20    23 1   
    51    21    29 1   
    52    21    52 1   
    53    21    53 1   
    54    22    29 1   
    55    22    54 1   
    56    22    55 1   
    57    23    27 1   
    58    23    56 1   
    59    23    57 1   
    60    24    58 1   
    61    26    59 1   
    62    27    32 1   
    63    30    32 2   
    64    31    32 2   
@<TRIPOS>SUBSTRUCTURE
     1 L2Z         1 TEMP              0 ****  ****    0 ROOT
