@<TRIPOS>MOLECULE
L2Z
   60    64     1     0     0
SMALL
No Charge or Current Charge


@<TRIPOS>ATOM
      1 C1          12.9970   -10.5670   -10.1460 c3         1 L2Z      -0.038800
      2 C2          14.4500   -10.6050    -7.9640 cc         1 L2Z      -0.268600
      3 C3          14.4100   -12.0770    -7.7110 c          1 L2Z       0.617700
      4 C4          15.4880   -12.6810    -6.8050 c3         1 L2Z      -0.172400
      5 C5          15.2320   -12.4240    -5.3080 c3         1 L2Z      -0.062400
      6 C6          14.8900   -10.9560    -4.9760 c3         1 L2Z      -0.073400
      7 C7          15.6900    -9.9050    -5.7860 c3         1 L2Z      -0.017100
      8 C8          15.1120    -9.6190    -7.1680 cc         1 L2Z      -0.043300
      9 C10         15.5470    -7.0620    -7.5000 c          1 L2Z       0.649700
     10 C12         18.1520    -6.4010    -4.8510 ca         1 L2Z       0.144100
     11 C13         19.1250    -8.2380    -3.5060 c3         1 L2Z       0.152900
     12 C15         18.8200    -4.0720    -4.5550 ca         1 L2Z      -0.001000
     13 N           14.1570    -8.6440    -8.9420 na         1 L2Z      -0.063000
     14 C           13.8280    -9.9930    -9.0240 cd         1 L2Z      -0.057300
     15 O           13.5660   -12.8100    -8.2140 o          1 L2Z      -0.546100
     16 C11         17.2440    -6.0220    -5.8630 ca         1 L2Z      -0.065000
     17 C14         18.9370    -5.4250    -4.2020 ca         1 L2Z      -0.199000
     18 C16         17.9120    -3.6850    -5.5580 ca         1 L2Z      -0.326500
     19 C17         19.8860    -2.8700    -7.7630 cy         1 L2Z       0.213300
     20 C18         20.1610    -1.7580    -8.7570 cy         1 L2Z      -0.159000
     21 C19         19.7820    -2.0840   -10.1860 cy         1 L2Z       0.158100
     22 C20         21.6100    -1.4750    -9.0730 cy         1 L2Z       0.158100
     23 C21         19.3440    -0.6790    -8.0740 cy         1 L2Z       0.213300
     24 C22         17.1280    -4.6570    -6.2130 ca         1 L2Z      -0.023000
     25 C9          14.9780    -8.4060    -7.8310 cd         1 L2Z      -0.271600
     26 N1          16.4840    -7.0560    -6.4810 ns         1 L2Z      -0.135000
     27 N2          18.7450    -1.9170    -7.4130 nq         1 L2Z      -0.715500
     28 O1          15.2180    -6.0660    -8.1320 o          1 L2Z      -0.598100
     29 O3          21.2800    -2.1390   -10.3930 oq         1 L2Z      -0.446000
     30 O4          18.4320    -1.1200    -5.0210 o          1 L2Z      -0.526500
     31 O5          16.3970    -1.7070    -6.4910 o          1 L2Z      -0.526500
     32 S           17.7700    -1.9520    -6.0330 sy         1 L2Z       1.153600
     33 H1          13.5380   -11.3660   -10.6670 hc         1 L2Z       0.061367
     34 H2          12.0600   -10.9880    -9.7640 hc         1 L2Z       0.061367
     35 H3          12.7390    -9.8040   -10.8900 hc         1 L2Z       0.061367
     36 H4          15.5690   -13.7590    -6.9830 hc         1 L2Z       0.060700
     37 H5          16.4410   -12.1950    -7.0440 hc         1 L2Z       0.060700
     38 H6          14.4150   -13.0670    -4.9580 hc         1 L2Z       0.044200
     39 H7          16.1270   -12.7210    -4.7450 hc         1 L2Z       0.044200
     40 H8          15.0740   -10.7980    -3.9060 hc         1 L2Z       0.048200
     41 H9          13.8170   -10.7830    -5.1270 hc         1 L2Z       0.048200
     42 H10         16.7500   -10.1840    -5.8470 hc         1 L2Z       0.050700
     43 H11         15.6440    -8.9990    -5.1750 hc         1 L2Z       0.050700
     44 H12         19.0300    -9.3270    -3.4150 h1         1 L2Z       0.048367
     45 H13         20.1700    -8.0070    -3.7490 h1         1 L2Z       0.048367
     46 H14         18.8830    -7.7940    -2.5320 h1         1 L2Z       0.048367
     47 H15         19.4380    -3.3320    -4.0480 ha         1 L2Z       0.139000
     48 H16         13.8620    -7.9330    -9.6060 hn         1 L2Z       0.368000
     49 H17         19.6440    -5.6940    -3.4230 ha         1 L2Z       0.124000
     50 H18         19.5990    -3.8420    -8.1810 h1         1 L2Z       0.070450
     51 H19         20.6480    -2.9810    -6.9820 h1         1 L2Z       0.070450
     52 H20         19.3250    -1.2650   -10.7540 h1         1 L2Z       0.059200
     53 H21         19.2930    -3.0490   -10.3620 h1         1 L2Z       0.059200
     54 H22         22.3580    -2.0290    -8.4950 h1         1 L2Z       0.059200
     55 H23         21.8670    -0.4180    -9.2040 h1         1 L2Z       0.059200
     56 H24         19.9210    -0.0310    -7.4040 h1         1 L2Z       0.070450
     57 H25         18.6740    -0.0960    -8.7170 h1         1 L2Z       0.070450
     58 H26         16.4400    -4.3360    -6.9910 ha         1 L2Z       0.173000
     59 H27         16.6790    -7.9720    -6.1030 hn         1 L2Z       0.175000
     60 O2          18.2400    -7.7440    -4.5280 os         1 L2Z      -0.360100
@<TRIPOS>BOND
     1     1    14 1   
     2     1    33 1   
     3     1    34 1   
     4     1    35 1   
     5     2     3 1   
     6     2     8 1   
     7     2    14 2   
     8     3     4 1   
     9     3    15 2   
    10     4     5 1   
    11     4    36 1   
    12     4    37 1   
    13     5     6 1   
    14     5    38 1   
    15     5    39 1   
    16     6     7 1   
    17     6    40 1   
    18     6    41 1   
    19     7     8 1   
    20     7    42 1   
    21     7    43 1   
    22     8    25 2   
    23     9    25 1   
    24     9    26 1   
    25     9    28 2   
    26    10    16 ar  
    27    10    17 ar  
    28    10    60 1   
    29    11    44 1   
    30    11    45 1   
    31    11    46 1   
    32    11    60 1   
    33    12    17 ar  
    34    12    18 ar  
    35    12    47 1   
    36    13    14 1   
    37    13    25 1   
    38    13    48 1   
    39    16    24 ar  
    40    16    26 1   
    41    17    49 1   
    42    18    24 ar  
    43    18    32 1   
    44    19    20 1   
    45    19    27 1   
    46    19    50 1   
    47    19    51 1   
    48    20    21 1   
    49    20    22 1   
    50    20    23 1   
    51    21    29 1   
    52    21    52 1   
    53    21    53 1   
    54    22    29 1   
    55    22    54 1   
    56    22    55 1   
    57    23    27 1   
    58    23    56 1   
    59    23    57 1   
    60    24    58 1   
    61    26    59 1   
    62    27    32 1   
    63    30    32 2   
    64    31    32 2   
@<TRIPOS>SUBSTRUCTURE
     1 L2Z         1 TEMP              0 ****  ****    0 ROOT
