@<TRIPOS>MOLECULE
L30
   31    33     1     0     0
SMALL
bcc


@<TRIPOS>ATOM
      1 O18         -1.0000    69.1970    40.3460 o          1 L30      -0.573100
      2 C6          -0.9250    69.6260    39.2090 c          1 L30       0.688700
      3 C7          -1.9840    70.5160    38.6490 ca         1 L30      -0.275900
      4 C8          -3.2830    70.4060    39.1360 ca         1 L30      -0.040000
      5 C10         -4.2610    71.2400    38.6270 ca         1 L30      -0.255300
      6 C12         -3.9010    72.1720    37.6640 ca         1 L30       0.420200
      7 N13         -2.6610    72.3070    37.2100 nb         1 L30      -0.670000
      8 C15         -1.7300    71.4950    37.6920 ca         1 L30       0.424200
      9 N5           0.0930    69.3310    38.3640 ns         1 L30      -0.489100
     10 C4           1.1790    68.5000    38.7100 ca         1 L30       0.054600
     11 C3           2.0270    68.8540    39.7260 ca         1 L30      -0.113000
     12 C2           3.1230    68.0370    40.0610 ca         1 L30      -0.114000
     13 C1           3.3700    66.8890    39.3610 ca         1 L30      -0.120000
     14 C22          2.5160    66.4960    38.3060 ca         1 L30      -0.029000
     15 C24          2.7500    65.3080    37.5740 ca         1 L30      -0.114000
     16 C26          1.9030    64.9230    36.5730 ca         1 L30      -0.124000
     17 C28          0.7750    65.7090    36.2620 ca         1 L30      -0.122000
     18 C20          0.5230    66.8660    36.9480 ca         1 L30      -0.121000
     19 C21          1.3900    67.2980    37.9790 ca         1 L30      -0.044000
     20 H1          -3.5230    69.6710    39.8940 ha         1 L30       0.160000
     21 H2          -5.2850    71.1760    38.9690 ha         1 L30       0.148000
     22 H3          -4.6450    72.8400    37.2450 h4         1 L30       0.023100
     23 H4          -0.7260    71.6540    37.3120 h4         1 L30       0.020100
     24 H5           0.0030    69.5890    37.3940 hn         1 L30       0.324500
     25 H6           1.8650    69.7780    40.2650 ha         1 L30       0.145000
     26 H7           3.7770    68.3370    40.8690 ha         1 L30       0.136000
     27 H8           4.2210    66.2670    39.6090 ha         1 L30       0.134000
     28 H9           3.6130    64.7030    37.8270 ha         1 L30       0.133000
     29 H10          2.0910    64.0110    36.0200 ha         1 L30       0.133000
     30 H11          0.1010    65.3910    35.4770 ha         1 L30       0.131000
     31 H12         -0.3560    67.4460    36.6990 ha         1 L30       0.127000
@<TRIPOS>BOND
     1     1     2 2   
     2     2     3 1   
     3     2     9 1   
     4     3     4 ar  
     5     3     8 ar  
     6     4     5 ar  
     7     4    20 1   
     8     5     6 ar  
     9     5    21 1   
    10     6     7 ar  
    11     6    22 1   
    12     7     8 ar  
    13     8    23 1   
    14     9    10 1   
    15     9    24 1   
    16    10    11 ar  
    17    10    19 ar  
    18    11    12 ar  
    19    11    25 1   
    20    12    13 ar  
    21    12    26 1   
    22    13    14 ar  
    23    13    27 1   
    24    14    15 ar  
    25    14    19 ar  
    26    15    16 ar  
    27    15    28 1   
    28    16    17 ar  
    29    16    29 1   
    30    17    18 ar  
    31    17    30 1   
    32    18    19 ar  
    33    18    31 1   
@<TRIPOS>SUBSTRUCTURE
     1 L30         1 TEMP              0 ****  ****    0 ROOT
