@<TRIPOS>MOLECULE
L30
   31    33     1     0     0
SMALL
No Charge or Current Charge


@<TRIPOS>ATOM
      1 O18         -0.9530    69.7150    40.6900 o          1 L30      -0.573100
      2 C6          -1.0360    69.7210    39.4670 c          1 L30       0.621700
      3 C7          -2.1200    70.5050    38.7730 ca         1 L30      -0.210600
      4 C8          -3.0560    71.2490    39.5230 ca         1 L30      -0.022000
      5 C10         -4.0490    71.9660    38.8380 ca         1 L30      -0.172000
      6 C12         -4.0820    71.9220    37.4370 ca         1 L30       0.354900
      7 N13         -3.1910    71.2140    36.7070 nb         1 L30      -0.670000
      8 C15         -2.2330    70.5230    37.3670 ca         1 L30       0.358900
      9 N5          -0.1700    69.0070    38.6450 ns         1 L30      -0.163000
     10 C4           0.9820    68.2170    38.9310 ca         1 L30      -0.038000
     11 C3           1.7050    68.3800    40.1340 ca         1 L30      -0.095000
     12 C2           2.8480    67.6090    40.3950 ca         1 L30      -0.096000
     13 C1           3.2910    66.6670    39.4570 ca         1 L30      -0.102000
     14 C22          2.5950    66.4960    38.2480 ca         1 L30      -0.029000
     15 C24          3.0570    65.5510    37.3120 ca         1 L30      -0.096000
     16 C26          2.3750    65.3650    36.1000 ca         1 L30      -0.106000
     17 C28          1.2280    66.1220    35.8200 ca         1 L30      -0.104000
     18 C20          0.7600    67.0670    36.7480 ca         1 L30      -0.103000
     19 C21          1.4390    67.2700    37.9750 ca         1 L30      -0.044000
     20 H1          -3.0180    71.2740    40.6110 ha         1 L30       0.142000
     21 H2          -4.7870    72.5500    39.3810 ha         1 L30       0.130000
     22 H3          -4.8420    72.4690    36.8810 h4         1 L30       0.023100
     23 H4          -1.5430    69.9720    36.7310 h4         1 L30       0.020100
     24 H5          -0.3850    69.0670    37.6600 hn         1 L30       0.158000
     25 H6           1.4070    69.1170    40.8740 ha         1 L30       0.127000
     26 H7           3.3950    67.7460    41.3250 ha         1 L30       0.118000
     27 H8           4.1790    66.0760    39.6680 ha         1 L30       0.116000
     28 H9           3.9450    64.9600    37.5230 ha         1 L30       0.115000
     29 H10          2.7350    64.6330    35.3790 ha         1 L30       0.115000
     30 H11          0.6990    65.9760    34.8810 ha         1 L30       0.113000
     31 H12         -0.1340    67.6300    36.4970 ha         1 L30       0.109000
@<TRIPOS>BOND
     1     1     2 2   
     2     2     3 1   
     3     2     9 1   
     4     3     4 ar  
     5     3     8 ar  
     6     4     5 ar  
     7     4    20 1   
     8     5     6 ar  
     9     5    21 1   
    10     6     7 ar  
    11     6    22 1   
    12     7     8 ar  
    13     8    23 1   
    14     9    10 1   
    15     9    24 1   
    16    10    11 ar  
    17    10    19 ar  
    18    11    12 ar  
    19    11    25 1   
    20    12    13 ar  
    21    12    26 1   
    22    13    14 ar  
    23    13    27 1   
    24    14    15 ar  
    25    14    19 ar  
    26    15    16 ar  
    27    15    28 1   
    28    16    17 ar  
    29    16    29 1   
    30    17    18 ar  
    31    17    30 1   
    32    18    19 ar  
    33    18    31 1   
@<TRIPOS>SUBSTRUCTURE
     1 L30         1 TEMP              0 ****  ****    0 ROOT
