@<TRIPOS>MOLECULE
L31
   44    47     1     0     0
SMALL
abcg2


@<TRIPOS>ATOM
      1 C1          -4.9580     0.3100     0.2870 ca         1 L31      -0.106300
      2 C2          -3.8770    -0.4680     0.6670 ca         1 L31      -0.057000
      3 C3          -2.6090    -0.2050     0.1370 ca         1 L31      -0.089800
      4 C4          -2.4480     0.8570    -0.7780 ca         1 L31      -0.043200
      5 C5          -3.5230     1.6510    -1.1690 ca         1 L31      -0.128000
      6 C6          -4.7610     1.3630    -0.6290 ca         1 L31      -0.088000
      7 C10         -6.3370     0.0370     0.8190 c3         1 L31      -0.040800
      8 C14         -1.3180    -0.7950     0.3140 cc         1 L31      -0.117400
      9 C15         -0.4610    -0.0960    -0.4840 cd         1 L31      -0.099300
     10 N16         -1.1280     0.9040    -1.1350 na         1 L31      -0.214700
     11 C18         -0.8640    -1.9250     1.1770 c6         1 L31      -0.026200
     12 C19          0.6600    -1.8850     1.2740 c6         1 L31       0.090000
     13 N22          1.2570    -1.6770    -0.0380 n          1 L31      -0.403800
     14 C25          1.0040    -0.3620    -0.6180 c6         1 L31       0.227200
     15 C26          1.8780     0.7030     0.0290 ca         1 L31      -0.069300
     16 C28          3.2080     0.7970    -0.3650 ca         1 L31      -0.134000
     17 C29          4.0570     1.7290     0.2220 ca         1 L31       0.138100
     18 C30          3.5710     2.5760     1.2160 ca         1 L31      -0.197000
     19 C31          2.2440     2.4820     1.6030 ca         1 L31      -0.071000
     20 C32          1.3930     1.5540     1.0170 ca         1 L31      -0.129000
     21 O37          5.3330     1.7700    -0.2080 oh         1 L31      -0.533100
     22 C39          1.7790    -2.7250    -0.7240 c          1 L31       0.611100
     23 O40          1.8690    -3.8370    -0.2210 o          1 L31      -0.598100
     24 C41          2.2490    -2.4870    -2.1400 c3         1 L31      -0.180100
     25 H2          -4.0130    -1.2780     1.3750 ha         1 L31       0.114000
     26 H5          -3.3980     2.4680    -1.8690 ha         1 L31       0.113000
     27 H6          -5.6110     1.9720    -0.9150 ha         1 L31       0.109000
     28 H10         -6.8190     0.9490     1.1740 hc         1 L31       0.039033
     29 H10A        -6.9840    -0.3850     0.0470 hc         1 L31       0.039033
     30 H10B        -6.3140    -0.6700     1.6480 hc         1 L31       0.039033
     31 H18         -1.2860    -1.8500     2.1820 hc         1 L31       0.058200
     32 H18A        -1.1900    -2.8880     0.7720 hc         1 L31       0.058200
     33 H19          0.9680    -1.0620     1.9240 h1         1 L31       0.066700
     34 H19A         1.0530    -2.8010     1.7040 h1         1 L31       0.066700
     35 H25          1.2570    -0.3940    -1.6790 h1         1 L31       0.069700
     36 H28          3.6000     0.1510    -1.1430 ha         1 L31       0.125000
     37 H30          4.2230     3.3070     1.6810 ha         1 L31       0.115000
     38 H31          1.8680     3.1430     2.3730 ha         1 L31       0.116000
     39 H32          0.3590     1.4980     1.3320 ha         1 L31       0.131000
     40 HO37         5.8210     2.4640     0.2510 ho         1 L31       0.467000
     41 H41          2.9670    -1.6710    -2.2210 hc         1 L31       0.061033
     42 H41A         2.7260    -3.3930    -2.5050 hc         1 L31       0.061033
     43 H41B         1.4130    -2.2570    -2.8030 hc         1 L31       0.061033
     44 HN16        -0.7230     1.5460    -1.7950 hn         1 L31       0.352000
@<TRIPOS>BOND
     1     1     2 ar  
     2     1     6 ar  
     3     1     7 1   
     4     2     3 ar  
     5     2    25 1   
     6     3     4 ar  
     7     3     8 1   
     8     4     5 ar  
     9     4    10 1   
    10     5     6 ar  
    11     5    26 1   
    12     6    27 1   
    13     7    28 1   
    14     7    29 1   
    15     7    30 1   
    16     8     9 2   
    17     8    11 1   
    18     9    10 1   
    19     9    14 1   
    20    10    44 1   
    21    11    12 1   
    22    11    31 1   
    23    11    32 1   
    24    12    13 1   
    25    12    33 1   
    26    12    34 1   
    27    13    14 1   
    28    13    22 1   
    29    14    15 1   
    30    14    35 1   
    31    15    16 ar  
    32    15    20 ar  
    33    16    17 ar  
    34    16    36 1   
    35    17    18 ar  
    36    17    21 1   
    37    18    19 ar  
    38    18    37 1   
    39    19    20 ar  
    40    19    38 1   
    41    20    39 1   
    42    21    40 1   
    43    22    23 2   
    44    22    24 1   
    45    24    41 1   
    46    24    42 1   
    47    24    43 1   
@<TRIPOS>SUBSTRUCTURE
     1 L31         1 TEMP              0 ****  ****    0 ROOT
