@<TRIPOS>MOLECULE
L31
   44    47     1     0     0
SMALL
No Charge or Current Charge


@<TRIPOS>ATOM
      1 C1          -5.0020     0.4120     0.2670 ca         1 L31      -0.106300
      2 C2          -3.9140    -0.4050     0.6480 ca         1 L31      -0.057000
      3 C3          -2.6550    -0.1250     0.1010 ca         1 L31      -0.089800
      4 C4          -2.4580     0.9000    -0.7800 ca         1 L31      -0.043200
      5 C5          -3.5140     1.7280    -1.1800 ca         1 L31      -0.128000
      6 C6          -4.7970     1.4750    -0.6480 ca         1 L31      -0.088000
      7 C10         -6.3900     0.1470     0.8310 c3         1 L31      -0.040800
      8 C14         -1.3930    -0.7720     0.3030 cc         1 L31      -0.117400
      9 C15         -0.4770    -0.0940    -0.4960 cd         1 L31      -0.099300
     10 N16         -1.1320     0.9630    -1.1730 na         1 L31      -0.214700
     11 C18         -1.0130    -1.9660     1.1410 c6         1 L31      -0.026200
     12 C19          0.5250    -2.0270     1.3050 c6         1 L31       0.090000
     13 N22          1.2230    -1.8120     0.0030 n          1 L31      -0.403800
     14 C25          0.9980    -0.4560    -0.5950 c6         1 L31       0.227200
     15 C26          1.9090     0.6130     0.0360 ca         1 L31      -0.069300
     16 C28          3.1210     0.9700    -0.5920 ca         1 L31      -0.134000
     17 C29          3.9580     1.9450    -0.0270 ca         1 L31       0.138100
     18 C30          3.5930     2.5810     1.1680 ca         1 L31      -0.197000
     19 C31          2.3840     2.2440     1.7980 ca         1 L31      -0.071000
     20 C32          1.5450     1.2680     1.2340 ca         1 L31      -0.129000
     21 O37          5.1250     2.2740    -0.6470 oh         1 L31      -0.533100
     22 C39          1.8750    -2.8750    -0.6660 c          1 L31       0.611100
     23 O40          1.9050    -3.9980    -0.1780 o          1 L31      -0.598100
     24 C41          2.5750    -2.6220    -2.0030 c3         1 L31      -0.180100
     25 H2          -4.0450    -1.2290     1.3460 ha         1 L31       0.114000
     26 H5          -3.3530     2.5420    -1.8830 ha         1 L31       0.113000
     27 H6          -5.6330     2.1040    -0.9460 ha         1 L31       0.109000
     28 H10         -6.9600     1.0780     0.9410 hc         1 L31       0.039033
     29 H10A        -6.9590    -0.5190     0.1720 hc         1 L31       0.039033
     30 H10B        -6.3380    -0.3240     1.8200 hc         1 L31       0.039033
     31 H18         -1.4910    -1.9290     2.1280 hc         1 L31       0.058200
     32 H18A        -1.3620    -2.8880     0.6570 hc         1 L31       0.058200
     33 H19          0.8440    -1.2520     2.0140 h1         1 L31       0.066700
     34 H19A         0.8060    -2.9900     1.7540 h1         1 L31       0.066700
     35 H25          1.2300    -0.4830    -1.6660 h1         1 L31       0.069700
     36 H28          3.4160     0.4970    -1.5240 ha         1 L31       0.125000
     37 H30          4.2360     3.3380     1.6110 ha         1 L31       0.115000
     38 H31          2.0940     2.7400     2.7220 ha         1 L31       0.116000
     39 H32          0.6080     1.0270     1.7310 ha         1 L31       0.131000
     40 HO37         5.5730     2.9660    -0.1150 ho         1 L31       0.467000
     41 H41          3.2390    -1.7580    -1.9120 hc         1 L31       0.061033
     42 H41A         3.1160    -3.5050    -2.3630 hc         1 L31       0.061033
     43 H41B         1.8350    -2.2950    -2.7410 hc         1 L31       0.061033
     44 HN16        -0.7150     1.6320    -1.8130 hn         1 L31       0.352000
@<TRIPOS>BOND
     1     1     2 ar  
     2     1     6 ar  
     3     1     7 1   
     4     2     3 ar  
     5     2    25 1   
     6     3     4 ar  
     7     3     8 1   
     8     4     5 ar  
     9     4    10 1   
    10     5     6 ar  
    11     5    26 1   
    12     6    27 1   
    13     7    28 1   
    14     7    29 1   
    15     7    30 1   
    16     8     9 2   
    17     8    11 1   
    18     9    10 1   
    19     9    14 1   
    20    10    44 1   
    21    11    12 1   
    22    11    31 1   
    23    11    32 1   
    24    12    13 1   
    25    12    33 1   
    26    12    34 1   
    27    13    14 1   
    28    13    22 1   
    29    14    15 1   
    30    14    35 1   
    31    15    16 ar  
    32    15    20 ar  
    33    16    17 ar  
    34    16    36 1   
    35    17    18 ar  
    36    17    21 1   
    37    18    19 ar  
    38    18    37 1   
    39    19    20 ar  
    40    19    38 1   
    41    20    39 1   
    42    21    40 1   
    43    22    23 2   
    44    22    24 1   
    45    24    41 1   
    46    24    42 1   
    47    24    43 1   
@<TRIPOS>SUBSTRUCTURE
     1 L31         1 TEMP              0 ****  ****    0 ROOT
