@<TRIPOS>MOLECULE
L32
   29    31     1     0     0
SMALL
No Charge or Current Charge


@<TRIPOS>ATOM
      1 Br2         -4.7100     1.8580     0.0020 br         1 L32      -0.111600
      2 C12         -2.7980     1.8320     0.0050 ca         1 L32      -0.022400
      3 C11         -2.0860     3.0520     0.0090 ca         1 L32      -0.099000
      4 C10         -0.6780     3.0500     0.0120 ca         1 L32      -0.097000
      5 C09         -0.0090     1.8120     0.0100 cp         1 L32      -0.035000
      6 C02          1.4320     1.5040     0.0120 cp         1 L32      -0.035000
      7 C13         -2.1200     0.5930     0.0040 ca         1 L32      -0.037000
      8 C08         -0.7100     0.5940     0.0060 ca         1 L32      -0.113900
      9 C07          0.2490    -0.5290     0.0050 cc         1 L32       0.392500
     10 N14          0.0570    -1.8210     0.0020 n2         1 L32      -0.263700
     11 O15         -1.2750    -2.2690    -0.0010 os         1 L32      -0.253000
     12 C16         -1.3130    -3.7140    -0.0050 c3         1 L32       0.000600
     13 C17         -2.7620    -4.2840    -0.0080 c          1 L32       0.727000
     14 O19         -2.8900    -5.5020    -0.0110 o          1 L32      -0.712500
     15 O18         -3.7160    -3.5140    -0.0080 o          1 L32      -0.712500
     16 C03          1.5630     0.1120     0.0090 ca         1 L32      -0.113900
     17 C04          2.8310    -0.4930     0.0100 ca         1 L32      -0.037000
     18 C05          3.9700     0.3410     0.0140 ca         1 L32      -0.022400
     19 Br1          5.7140    -0.4440     0.0150 br         1 L32      -0.111600
     20 C06          3.8390     1.7490     0.0170 ca         1 L32      -0.099000
     21 C01          2.5600     2.3450     0.0160 ca         1 L32      -0.097000
     22 H1          -2.6260     3.9960     0.0100 ha         1 L32       0.117000
     23 H2          -0.1210     3.9830     0.0150 ha         1 L32       0.110000
     24 H3          -2.6960    -0.3280     0.0010 ha         1 L32       0.172000
     25 H4          -0.8010    -4.1060    -0.8930 h1         1 L32       0.027700
     26 H5          -0.8040    -4.1100     0.8840 h1         1 L32       0.027700
     27 H7           2.9350    -1.5760     0.0080 ha         1 L32       0.172000
     28 H8           4.7270     2.3770     0.0200 ha         1 L32       0.117000
     29 H9           2.4490     3.4260     0.0180 ha         1 L32       0.110000
@<TRIPOS>BOND
     1     1     2 1   
     2     2     3 ar  
     3     2     7 ar  
     4     3     4 ar  
     5     3    22 1   
     6     4     5 ar  
     7     4    23 1   
     8     5     6 1   
     9     5     8 ar  
    10     6    16 ar  
    11     6    21 ar  
    12     7     8 ar  
    13     7    24 1   
    14     8     9 1   
    15     9    10 2   
    16     9    16 1   
    17    10    11 1   
    18    11    12 1   
    19    12    13 1   
    20    12    25 1   
    21    12    26 1   
    22    13    14 1   
    23    13    15 1   
    24    16    17 ar  
    25    17    18 ar  
    26    17    27 1   
    27    18    19 1   
    28    18    20 ar  
    29    20    21 ar  
    30    20    28 1   
    31    21    29 1   
@<TRIPOS>SUBSTRUCTURE
     1 L32         1 TEMP              0 ****  ****    0 ROOT
