@<TRIPOS>MOLECULE
L32
   29    31     1     0     0
SMALL
bcc


@<TRIPOS>ATOM
      1 BR2         -4.6610     1.7310     0.0070 br         1 L32      -0.111600
      2 C12         -2.7720     1.7180     0.0090 ca         1 L32      -0.022400
      3 C11         -2.0920     2.9300     0.0090 ca         1 L32      -0.117000
      4 C10         -0.7020     2.9390     0.0100 ca         1 L32      -0.115000
      5 C09         -0.0230     1.7350     0.0100 cp         1 L32      -0.035000
      6 C02          1.4130     1.4560     0.0110 cp         1 L32      -0.035000
      7 C13         -2.1130     0.4930     0.0080 ca         1 L32      -0.055000
      8 C08         -0.7250     0.5160     0.0090 ca         1 L32      -0.113900
      9 C07          0.2680    -0.5710     0.0090 cc         1 L32       0.392500
     10 N14          0.1350    -1.8400     0.0070 n2         1 L32      -0.362200
     11 O15         -1.1440    -2.2260     0.0060 os         1 L32      -0.131300
     12 C16         -1.2870    -3.6400     0.0040 c3         1 L32      -0.022600
     13 C17         -2.7810    -3.9990    -0.0210 c          1 L32       0.937600
     14 O19         -3.0030    -5.2240    -0.0300 o          1 L32      -0.817800
     15 O18         -3.6050    -3.0710    -0.0280 o          1 L32      -0.817800
     16 C03          1.5910     0.0670     0.0100 ca         1 L32      -0.113900
     17 C04          2.8510    -0.5010     0.0110 ca         1 L32      -0.055000
     18 C05          3.9390     0.3630     0.0120 ca         1 L32      -0.022400
     19 BR1          5.6810    -0.3630     0.0120 br         1 L32      -0.111600
     20 C06          3.7840     1.7460     0.0130 ca         1 L32      -0.117000
     21 C01          2.5100     2.3000     0.0120 ca         1 L32      -0.115000
     22 H1          -2.6320     3.8670     0.0090 ha         1 L32       0.135000
     23 H2          -0.1750     3.8840     0.0100 ha         1 L32       0.128000
     24 H3          -2.6660    -0.4370     0.0070 ha         1 L32       0.190000
     25 H4          -0.7870    -4.0680    -0.8720 h1         1 L32       0.027700
     26 H5          -0.8170    -4.0680     0.8960 h1         1 L32       0.027700
     27 H7           2.9780    -1.5750     0.0100 ha         1 L32       0.190000
     28 H8           4.6480     2.3970     0.0140 ha         1 L32       0.135000
     29 H9           2.3970     3.3760     0.0130 ha         1 L32       0.128000
@<TRIPOS>BOND
     1     1     2 1   
     2     2     3 ar  
     3     2     7 ar  
     4     3     4 ar  
     5     3    22 1   
     6     4     5 ar  
     7     4    23 1   
     8     5     6 1   
     9     5     8 ar  
    10     6    16 ar  
    11     6    21 ar  
    12     7     8 ar  
    13     7    24 1   
    14     8     9 1   
    15     9    10 2   
    16     9    16 1   
    17    10    11 1   
    18    11    12 1   
    19    12    13 1   
    20    12    25 1   
    21    12    26 1   
    22    13    14 1   
    23    13    15 1   
    24    16    17 ar  
    25    17    18 ar  
    26    17    27 1   
    27    18    19 1   
    28    18    20 ar  
    29    20    21 ar  
    30    20    28 1   
    31    21    29 1   
@<TRIPOS>SUBSTRUCTURE
     1 L32         1 TEMP              0 ****  ****    0 ROOT
