@<TRIPOS>MOLECULE
L33
   55    56     1     0     0
SMALL
No Charge or Current Charge


@<TRIPOS>ATOM
      1 C15          2.5790    -2.6780    -0.9060 ca         1 L33      -0.108000
      2 C14          3.5290    -1.6550    -1.0520 ca         1 L33      -0.039000
      3 C12          1.7770    -0.0010    -0.6910 ca         1 L33      -0.078000
      4 C4          -5.0130     0.2940     0.4760 cc         1 L33      -0.259600
      5 C3          -4.1670    -0.8690     0.4800 cc         1 L33       0.013700
      6 C11          0.8190    -1.0210    -0.5390 ca         1 L33      -0.038000
      7 C16          1.2320    -2.3690    -0.6520 ca         1 L33      -0.074000
      8 C13          3.1310    -0.3080    -0.9420 ca         1 L33      -0.259500
      9 C7          -2.8820    -0.4670     0.1650 cd         1 L33      -0.281600
     10 C5          -4.2270     1.3980     0.1930 cd         1 L33      -0.081300
     11 C8          -1.6780    -1.3490     0.0000 c          1 L33       0.654700
     12 C26         -4.5230     2.8730     0.0430 c3         1 L33      -0.041800
     13 C29         -7.2890     1.6030     0.7550 c3         1 L33      -0.194100
     14 C23          5.4740    -0.2520     1.7650 c3         1 L33      -0.111600
     15 C25          6.7030     2.8140     0.7700 c3         1 L33      -0.111600
     16 C2          -4.6360    -2.2820     0.7880 c3         1 L33      -0.015100
     17 N6          -2.9310     0.9260     0.0100 na         1 L33      -0.093000
     18 N10         -0.5250    -0.6260    -0.2850 ns         1 L33      -0.164000
     19 N21          4.4100     1.6930     0.4500 n3         1 L33      -0.805500
     20 O28         -7.1420    -0.7370     0.9070 o          1 L33      -0.535100
     21 O9          -1.7010    -2.5680     0.0990 o          1 L33      -0.561100
     22 O19          5.6630     0.4710    -1.4320 o          1 L33      -0.543500
     23 O20          3.7090     2.0570    -1.9530 o          1 L33      -0.543500
     24 S18          4.3410     1.0260    -1.1200 sy         1 L33       1.193600
     25 H1           2.8880    -3.7170    -0.9930 ha         1 L33       0.122000
     26 H2           4.5680    -1.9150    -1.2500 ha         1 L33       0.141000
     27 H3           1.4710     1.0410    -0.6050 ha         1 L33       0.121000
     28 H4           0.5290    -3.1890    -0.5520 ha         1 L33       0.150000
     29 H5          -5.2320     3.0640    -0.7700 hc         1 L33       0.055700
     30 H6          -4.9170     3.3050     0.9690 hc         1 L33       0.055700
     31 H7          -3.6130     3.4360    -0.1990 hc         1 L33       0.055700
     32 H8          -7.1730     2.1160    -0.2040 hc         1 L33       0.056700
     33 H9          -8.3510     1.4460     0.9780 hc         1 L33       0.056700
     34 H10         -6.8350     2.2830     1.4800 hc         1 L33       0.056700
     35 H11         -5.4770    -4.0420    -0.1880 hc         1 L33       0.038367
     36 H12         -5.9890    -2.5030    -0.9150 hc         1 L33       0.038367
     37 H13         -4.3490    -3.1200    -1.2070 hc         1 L33       0.038367
     38 H14          5.4870    -0.9580     0.9290 hc         1 L33       0.047367
     39 H15          6.4540     0.2270     1.8260 hc         1 L33       0.047367
     40 H16          5.3290    -0.8310     2.6840 hc         1 L33       0.047367
     41 H17          7.1710     3.8030     0.7060 hc         1 L33       0.047367
     42 H18          6.9560     2.3950     1.7490 hc         1 L33       0.047367
     43 H19          7.1370     2.1840    -0.0140 hc         1 L33       0.047367
     44 H20         -3.8320    -2.8640     1.2470 hc         1 L33       0.058700
     45 H21         -5.4100    -2.2820     1.5610 hc         1 L33       0.058700
     46 H22          3.3840     0.2260     1.5930 h1         1 L33       0.044950
     47 H23          4.3020     1.3760     2.5370 h1         1 L33       0.044950
     48 H24          4.8000     3.4930     1.4850 h1         1 L33       0.044950
     49 H25          4.9870     3.6070    -0.2530 h1         1 L33       0.044950
     50 H26         -2.1440     1.5240    -0.2220 hn         1 L33       0.347000
     51 H27         -0.6610     0.3740    -0.3170 hn         1 L33       0.145000
     52 C27         -6.5030     0.2910     0.7250 c          1 L33       0.609700
     53 C22          4.3320     0.7780     1.6160 c3         1 L33       0.242300
     54 C1          -5.1450    -3.0320    -0.4580 c3         1 L33      -0.078100
     55 C24          5.1760     2.9510     0.6070 c3         1 L33       0.242300
@<TRIPOS>BOND
     1     1     2 ar  
     2     1     7 ar  
     3     1    25 1   
     4     2     8 ar  
     5     2    26 1   
     6     3     6 ar  
     7     3     8 ar  
     8     3    27 1   
     9     4     5 1   
    10     4    10 2   
    11     4    52 1   
    12     5     9 2   
    13     5    16 1   
    14     6     7 ar  
    15     6    18 1   
    16     7    28 1   
    17     8    24 1   
    18     9    11 1   
    19     9    17 1   
    20    10    12 1   
    21    10    17 1   
    22    11    18 1   
    23    11    21 2   
    24    12    29 1   
    25    12    30 1   
    26    12    31 1   
    27    13    32 1   
    28    13    33 1   
    29    13    34 1   
    30    13    52 1   
    31    14    38 1   
    32    14    39 1   
    33    14    40 1   
    34    14    53 1   
    35    15    41 1   
    36    15    42 1   
    37    15    43 1   
    38    15    55 1   
    39    16    44 1   
    40    16    45 1   
    41    16    54 1   
    42    17    50 1   
    43    18    51 1   
    44    19    24 1   
    45    19    53 1   
    46    19    55 1   
    47    20    52 2   
    48    22    24 2   
    49    23    24 2   
    50    35    54 1   
    51    36    54 1   
    52    37    54 1   
    53    46    53 1   
    54    47    53 1   
    55    48    55 1   
    56    49    55 1   
@<TRIPOS>SUBSTRUCTURE
     1 L33         1 TEMP              0 ****  ****    0 ROOT
