@<TRIPOS>MOLECULE
L33
   55    56     1     0     0
SMALL
abcg2


@<TRIPOS>ATOM
      1 C15          2.3140    -3.0080    -0.4170 ca         1 L33      -0.108000
      2 C14          3.3360    -2.1000    -0.6520 ca         1 L33      -0.039000
      3 C12          1.7300    -0.3060    -0.4180 ca         1 L33      -0.078000
      4 C4          -4.9560     0.5020     0.2860 cc         1 L33      -0.259600
      5 C3          -4.2260    -0.7300     0.3170 cc         1 L33       0.013700
      6 C11          0.7100    -1.2270    -0.1890 ca         1 L33      -0.038000
      7 C16          1.0130    -2.5900    -0.1820 ca         1 L33      -0.074000
      8 C13          3.0250    -0.7490    -0.6390 ca         1 L33      -0.259500
      9 C7          -2.9330    -0.4270    -0.0450 cd         1 L33      -0.281600
     10 C5          -4.0640     1.5060    -0.1050 cd         1 L33      -0.081300
     11 C8          -1.7730    -1.3170    -0.1600 c          1 L33       0.654700
     12 C26         -4.2170     2.9640    -0.3670 c3         1 L33      -0.041800
     13 C29         -6.9640     2.0440     0.6840 c3         1 L33      -0.194100
     14 C23          7.0450     0.4240     1.3430 c3         1 L33      -0.111600
     15 C25          5.0360     3.4560     0.7650 c3         1 L33      -0.111600
     16 C2          -4.7290    -2.0900     0.6900 c3         1 L33      -0.015100
     17 N6          -2.8700     0.9280    -0.2840 na         1 L33      -0.093000
     18 N10         -0.5670    -0.7070     0.0380 ns         1 L33      -0.164000
     19 N21          4.7330     0.9820     0.5790 n3         1 L33      -0.805500
     20 O28         -7.0860    -0.3100     0.8200 o          1 L33      -0.535100
     21 O9          -1.8880    -2.5050    -0.4090 o          1 L33      -0.561100
     22 O19          5.4250    -0.2350    -1.5040 o          1 L33      -0.543500
     23 O20          3.6940     1.5870    -1.6010 o          1 L33      -0.543500
     24 S18          4.3000     0.4630    -0.9020 sy         1 L33       1.193600
     25 H1           2.5330    -4.0670    -0.4160 ha         1 L33       0.122000
     26 H2           4.3410    -2.4460    -0.8470 ha         1 L33       0.141000
     27 H3           1.4970     0.7520    -0.4400 ha         1 L33       0.121000
     28 H4           0.2490    -3.3260     0.0080 ha         1 L33       0.150000
     29 H5          -4.9640     3.1580    -1.1360 hc         1 L33       0.055700
     30 H6          -4.5190     3.5060     0.5280 hc         1 L33       0.055700
     31 H7          -3.2750     3.3910    -0.7070 hc         1 L33       0.055700
     32 H8          -6.9860     2.5120    -0.3020 hc         1 L33       0.056700
     33 H9          -7.9860     1.9880     1.0530 hc         1 L33       0.056700
     34 H10         -6.3890     2.6970     1.3400 hc         1 L33       0.056700
     35 H11         -5.6960    -3.8150    -0.1980 hc         1 L33       0.038367
     36 H12         -6.2140    -2.2770    -0.8840 hc         1 L33       0.038367
     37 H13         -4.6310    -2.9420    -1.3000 hc         1 L33       0.038367
     38 H14          7.4210     0.3000     0.3290 hc         1 L33       0.047367
     39 H15          7.2590     1.4420     1.6670 hc         1 L33       0.047367
     40 H16          7.5960    -0.2530     1.9970 hc         1 L33       0.047367
     41 H17          4.6050     4.3440     1.2290 hc         1 L33       0.047367
     42 H18          6.0600     3.3560     1.1210 hc         1 L33       0.047367
     43 H19          5.0620     3.6180    -0.3120 hc         1 L33       0.047367
     44 H20         -3.9030    -2.6860     1.0780 hc         1 L33       0.058700
     45 H21         -5.4580    -2.0050     1.4930 hc         1 L33       0.058700
     46 H22          5.3830    -0.9300     1.1520 h1         1 L33       0.044950
     47 H23          5.1990     0.2210     2.4400 h1         1 L33       0.044950
     48 H24          4.1630     2.1100     2.1990 h1         1 L33       0.044950
     49 H25          3.1720     2.3790     0.7940 h1         1 L33       0.044950
     50 H26         -2.0750     1.4230    -0.6600 hn         1 L33       0.347000
     51 H27         -0.5790     0.2500     0.3540 hn         1 L33       0.145000
     52 C27         -6.3740     0.6580     0.6090 c          1 L33       0.609700
     53 C22          5.5600     0.1150     1.4160 c3         1 L33       0.242300
     54 C1          -5.3560    -2.8220    -0.4950 c3         1 L33      -0.078100
     55 C24          4.2040     2.2350     1.1170 c3         1 L33       0.242300
@<TRIPOS>BOND
     1     1     2 ar  
     2     1     7 ar  
     3     1    25 1   
     4     2     8 ar  
     5     2    26 1   
     6     3     6 ar  
     7     3     8 ar  
     8     3    27 1   
     9     4     5 1   
    10     4    10 2   
    11     4    52 1   
    12     5     9 2   
    13     5    16 1   
    14     6     7 ar  
    15     6    18 1   
    16     7    28 1   
    17     8    24 1   
    18     9    11 1   
    19     9    17 1   
    20    10    12 1   
    21    10    17 1   
    22    11    18 1   
    23    11    21 2   
    24    12    29 1   
    25    12    30 1   
    26    12    31 1   
    27    13    32 1   
    28    13    33 1   
    29    13    34 1   
    30    13    52 1   
    31    14    38 1   
    32    14    39 1   
    33    14    40 1   
    34    14    53 1   
    35    15    41 1   
    36    15    42 1   
    37    15    43 1   
    38    15    55 1   
    39    16    44 1   
    40    16    45 1   
    41    16    54 1   
    42    17    50 1   
    43    18    51 1   
    44    19    24 1   
    45    19    53 1   
    46    19    55 1   
    47    20    52 2   
    48    22    24 2   
    49    23    24 2   
    50    35    54 1   
    51    36    54 1   
    52    37    54 1   
    53    46    53 1   
    54    47    53 1   
    55    48    55 1   
    56    49    55 1   
@<TRIPOS>SUBSTRUCTURE
     1 L33         1 TEMP              0 ****  ****    0 ROOT
