@<TRIPOS>MOLECULE
L34
   53    56     1     0     0
SMALL
abcg2


@<TRIPOS>ATOM
      1 N2A          0.1760    -0.8470     9.2950 nv         1 L34      -1.057900
      2 N1          -1.0740    -0.2770     7.4670 nb         1 L34      -0.346000
      3 C2           0.1280    -0.5140     7.9840 ca         1 L34       0.422900
      4 N3           1.2880    -0.5010     7.3260 nb         1 L34      -0.306000
      5 C4           1.2470    -0.1850     6.0420 ca         1 L34       0.443300
      6 O4A          2.4210    -0.1800     5.4240 oh         1 L34      -0.661300
      7 C4A          0.0530     0.1170     5.3920 ca         1 L34      -0.348000
      8 N5          -0.0690     0.5960     4.0710 n          1 L34      -0.196400
      9 C6          -1.2620     1.3500     3.7330 c5         1 L34       0.069700
     10 C7          -2.4810     0.5810     4.2220 c6         1 L34       0.212800
     11 N8          -2.3130     0.3040     5.6260 nu         1 L34      -0.942100
     12 C8A         -1.1140     0.0330     6.1720 ca         1 L34       0.415900
     13 CX           0.4990     0.0270     2.9780 c          1 L34       0.611000
     14 OX           1.4670    -0.7280     3.0140 o          1 L34      -0.591000
     15 C9          -1.1530     1.4720     2.2150 c5         1 L34       0.093000
     16 N10         -0.1620     0.4640     1.8670 n          1 L34      -0.210400
     17 C1B          0.1890     0.1960     0.5420 ca         1 L34      -0.046000
     18 C2B          0.8590    -0.9760     0.1730 ca         1 L34      -0.153500
     19 C3B          1.1790    -1.2010    -1.1520 ca         1 L34      -0.056000
     20 C4B          0.8150    -0.3040    -2.1530 ca         1 L34      -0.110600
     21 C5B          0.1380     0.8530    -1.7810 ca         1 L34      -0.056000
     22 C6B         -0.1700     1.1040    -0.4550 ca         1 L34      -0.153500
     23 C7B          1.2100    -0.6030    -3.5630 c          1 L34       0.602700
     24 O7B          2.2030    -1.2840    -3.8010 o          1 L34      -0.635100
     25 N            0.4030    -0.1280    -4.5190 ns         1 L34      -0.421900
     26 CA           0.7840    -0.1020    -5.9120 c3         1 L34      -0.049300
     27 CB          -0.4430     0.1890    -6.7770 c3         1 L34      -0.056400
     28 CG          -1.5200    -0.8800    -6.6880 c3         1 L34      -0.203400
     29 CD          -2.7420    -0.6680    -7.6000 c          1 L34       0.712000
     30 OE1         -2.6750     0.2250    -8.4680 o          1 L34      -0.760000
     31 OE2         -3.7110    -1.4320    -7.4010 o          1 L34      -0.760000
     32 C            1.9170     0.9230    -6.1910 c          1 L34       0.718000
     33 O            2.4060     0.8610    -7.3380 o          1 L34      -0.740000
     34 OXT          2.2280     1.7090    -5.2810 o          1 L34      -0.740000
     35 HN21        -0.6240    -0.6340     9.8650 hn         1 L34       0.483000
     36 HN22         1.0700    -0.8120     9.7540 hn         1 L34       0.483000
     37 HO4          2.2830    -0.3330     4.4610 ho         1 L34       0.531000
     38 H6          -1.2350     2.3310     4.2100 h1         1 L34       0.078700
     39 H71         -3.3810     1.1800     4.0850 h1         1 L34       0.057200
     40 H72         -2.5980    -0.3380     3.6350 h1         1 L34       0.057200
     41 HN8         -3.1230     0.2230     6.2180 hn         1 L34       0.505000
     42 H91         -2.1000     1.2760     1.7100 h1         1 L34       0.066700
     43 H92         -0.8120     2.4690     1.9330 h1         1 L34       0.066700
     44 H2B          1.1260    -1.7160     0.9100 ha         1 L34       0.111500
     45 H3B          1.7060    -2.1090    -1.4130 ha         1 L34       0.136500
     46 H5B         -0.1340     1.6000    -2.5160 ha         1 L34       0.136500
     47 H6B         -0.6820     2.0240    -0.2090 ha         1 L34       0.111500
     48 HN          -0.3790     0.4450    -4.2470 hn         1 L34       0.293500
     49 HA           1.1620    -1.0930    -6.1800 h1         1 L34       0.057700
     50 HB1         -0.8550     1.1660    -6.5000 hc         1 L34       0.051200
     51 HB2         -0.1050     0.2850    -7.8080 hc         1 L34       0.051200
     52 HG1         -1.0830    -1.8540    -6.9390 hc         1 L34       0.010200
     53 HG2         -1.8750    -0.9880    -5.6580 hc         1 L34       0.010200
@<TRIPOS>BOND
     1     1     3 1   
     2     1    35 1   
     3     1    36 1   
     4     2     3 ar  
     5     2    12 ar  
     6     3     4 ar  
     7     4     5 ar  
     8     5     6 1   
     9     5     7 ar  
    10     6    37 1   
    11     7     8 1   
    12     7    12 ar  
    13     8     9 1   
    14     8    13 1   
    15     9    10 1   
    16     9    15 1   
    17     9    38 1   
    18    10    11 1   
    19    10    39 1   
    20    10    40 1   
    21    11    12 1   
    22    11    41 1   
    23    13    14 2   
    24    13    16 1   
    25    15    16 1   
    26    15    42 1   
    27    15    43 1   
    28    16    17 1   
    29    17    18 ar  
    30    17    22 ar  
    31    18    19 ar  
    32    18    44 1   
    33    19    20 ar  
    34    19    45 1   
    35    20    21 ar  
    36    20    23 1   
    37    21    22 ar  
    38    21    46 1   
    39    22    47 1   
    40    23    24 2   
    41    23    25 1   
    42    25    26 1   
    43    25    48 1   
    44    26    27 1   
    45    26    32 1   
    46    26    49 1   
    47    27    28 1   
    48    27    50 1   
    49    27    51 1   
    50    28    29 1   
    51    28    52 1   
    52    28    53 1   
    53    29    30 1   
    54    29    31 1   
    55    32    33 1   
    56    32    34 1   
@<TRIPOS>SUBSTRUCTURE
     1 L34         1 TEMP              0 ****  ****    0 ROOT
