@<TRIPOS>MOLECULE
L34
   53    56     1     0     0
SMALL
No Charge or Current Charge


@<TRIPOS>ATOM
      1 N2A          0.3830    -1.0980     9.3490 nv         1 L34      -1.057900
      2 N1          -0.8670    -0.1300     7.7170 nb         1 L34      -0.346000
      3 C2           0.2760    -0.7230     8.0560 ca         1 L34       0.422900
      4 N3           1.3220    -0.9940     7.2750 nb         1 L34      -0.306000
      5 C4           1.2140    -0.6190     5.9920 ca         1 L34       0.443300
      6 O4A          2.2830    -0.8960     5.2130 oh         1 L34      -0.661300
      7 C4A          0.0810     0.0740     5.5010 ca         1 L34      -0.348000
      8 N5          -0.1980     0.4500     4.1130 n          1 L34      -0.196400
      9 C6          -1.2690     1.4350     3.8470 c5         1 L34       0.069700
     10 C7          -2.5360     1.0620     4.6630 c6         1 L34       0.212800
     11 N8          -2.1450     0.8620     6.0770 nu         1 L34      -0.942100
     12 C8A         -0.9590     0.2440     6.4390 ca         1 L34       0.415900
     13 CX           0.3230    -0.0710     2.9270 c          1 L34       0.611000
     14 OX           1.2500    -0.8690     2.8670 o          1 L34      -0.591000
     15 C9          -1.4260     1.4100     2.2860 c5         1 L34       0.093000
     16 N10         -0.3750     0.4650     1.8400 n          1 L34      -0.210400
     17 C1B         -0.1730     0.1490     0.4440 ca         1 L34      -0.046000
     18 C2B          0.3740    -1.0850     0.0340 ca         1 L34      -0.153500
     19 C3B          0.7030    -1.3210    -1.3120 ca         1 L34      -0.056000
     20 C4B          0.5470    -0.3120    -2.2850 ca         1 L34      -0.110600
     21 C5B          0.0670     0.9500    -1.8640 ca         1 L34      -0.056000
     22 C6B         -0.2630     1.1780    -0.5160 ca         1 L34      -0.153500
     23 C7B          0.9130    -0.6030    -3.7290 c          1 L34       0.602700
     24 O7B          1.3450    -1.6950    -4.0800 o          1 L34      -0.635100
     25 N            0.7410     0.4310    -4.6300 ns         1 L34      -0.421900
     26 CA           0.9950     0.3600    -6.0910 c3         1 L34      -0.049300
     27 CB          -0.3040     0.1040    -6.9010 c3         1 L34      -0.056400
     28 CG          -1.0070    -1.2450    -6.5920 c3         1 L34      -0.203400
     29 CD          -2.2130    -1.4400    -7.5300 c          1 L34       0.712000
     30 OE1         -2.0250    -1.9840    -8.6080 o          1 L34      -0.760000
     31 OE2         -3.2970    -0.9990    -7.1780 o          1 L34      -0.760000
     32 C            1.7110     1.6600    -6.5710 c          1 L34       0.718000
     33 O            2.7630     1.5470    -7.1850 o          1 L34      -0.740000
     34 OXT          1.2450     2.7420    -6.2380 o          1 L34      -0.740000
     35 HN21        -0.2850    -0.7150    10.0140 hn         1 L34       0.483000
     36 HN22         1.3020    -1.3410     9.7090 hn         1 L34       0.483000
     37 HO4          1.9430    -0.8670     4.2780 ho         1 L34       0.531000
     38 H6          -0.9380     2.4300     4.1740 h1         1 L34       0.078700
     39 H71         -3.3050     1.8440     4.5630 h1         1 L34       0.057200
     40 H72         -2.9550     0.1290     4.2560 h1         1 L34       0.057200
     41 HN8         -2.8650     0.8790     6.8020 hn         1 L34       0.505000
     42 H91         -2.4190     1.0560     1.9800 h1         1 L34       0.066700
     43 H92         -1.2750     2.4120     1.8660 h1         1 L34       0.066700
     44 H2B          0.5110    -1.8930     0.7460 ha         1 L34       0.111500
     45 H3B          1.0900    -2.2980    -1.5940 ha         1 L34       0.136500
     46 H5B         -0.0460     1.7740    -2.5640 ha         1 L34       0.136500
     47 H6B         -0.5950     2.1720    -0.2300 ha         1 L34       0.111500
     48 HN           0.4080     1.3110    -4.2590 hn         1 L34       0.293500
     49 HA           1.6880    -0.4690    -6.2840 h1         1 L34       0.057700
     50 HB1         -1.0090     0.9270    -6.7250 hc         1 L34       0.051200
     51 HB2         -0.0540     0.1320    -7.9690 hc         1 L34       0.051200
     52 HG1         -0.2530    -2.0220    -6.7690 hc         1 L34       0.010200
     53 HG2         -1.3420    -1.1840    -5.5490 hc         1 L34       0.010200
@<TRIPOS>BOND
     1     1     3 1   
     2     1    35 1   
     3     1    36 1   
     4     2     3 ar  
     5     2    12 ar  
     6     3     4 ar  
     7     4     5 ar  
     8     5     6 1   
     9     5     7 ar  
    10     6    37 1   
    11     7     8 1   
    12     7    12 ar  
    13     8     9 1   
    14     8    13 1   
    15     9    10 1   
    16     9    15 1   
    17     9    38 1   
    18    10    11 1   
    19    10    39 1   
    20    10    40 1   
    21    11    12 1   
    22    11    41 1   
    23    13    14 2   
    24    13    16 1   
    25    15    16 1   
    26    15    42 1   
    27    15    43 1   
    28    16    17 1   
    29    17    18 ar  
    30    17    22 ar  
    31    18    19 ar  
    32    18    44 1   
    33    19    20 ar  
    34    19    45 1   
    35    20    21 ar  
    36    20    23 1   
    37    21    22 ar  
    38    21    46 1   
    39    22    47 1   
    40    23    24 2   
    41    23    25 1   
    42    25    26 1   
    43    25    48 1   
    44    26    27 1   
    45    26    32 1   
    46    26    49 1   
    47    27    28 1   
    48    27    50 1   
    49    27    51 1   
    50    28    29 1   
    51    28    52 1   
    52    28    53 1   
    53    29    30 1   
    54    29    31 1   
    55    32    33 1   
    56    32    34 1   
@<TRIPOS>SUBSTRUCTURE
     1 L34         1 TEMP              0 ****  ****    0 ROOT
