@<TRIPOS>MOLECULE
L35
   40    41     1     0     0
SMALL
No Charge or Current Charge


@<TRIPOS>ATOM
      1 C1          29.9760    47.1500    23.5520 ca         1 L35       0.035000
      2 C2          30.7490    47.0300    24.7290 ca         1 L35      -0.158500
      3 C3          31.0180    45.7640    25.2740 ca         1 L35       0.162000
      4 C4          30.5240    44.6060    24.6590 ca         1 L35      -0.143000
      5 C5          29.7570    44.7170    23.4920 ca         1 L35       0.162000
      6 C6          29.4850    45.9800    22.9420 ca         1 L35      -0.158500
      7 C7          29.9800    49.7040    23.2610 c          1 L35       0.660100
      8 C8          29.4650    54.8390    21.9130 ca         1 L35       0.200100
      9 C9          30.1130    54.2480    23.0090 ca         1 L35      -0.156500
     10 C10         30.1220    52.8530    23.1800 ca         1 L35      -0.096500
     11 C11         29.4710    52.0190    22.2450 ca         1 L35      -0.114000
     12 C12         28.8130    52.6110    21.1510 ca         1 L35      -0.096500
     13 C13         28.8060    54.0070    20.9820 ca         1 L35      -0.156500
     14 C14         29.0920    57.0210    20.6770 c3         1 L35       0.040000
     15 C15         30.0110    56.6580    19.4720 c3         1 L35      -0.078100
     16 C16         29.3820    58.4790    21.1130 c3         1 L35      -0.078100
     17 C17         27.5470    56.9130    20.3550 c          1 L35       0.699000
     18 N1          29.6600    48.3930    22.9380 ns         1 L35      -0.170000
     19 N2          29.4330    50.5980    22.3470 ns         1 L35      -0.149000
     20 O1          30.6600    50.0290    24.2280 o          1 L35      -0.606100
     21 O3          26.7820    56.5040    21.2200 o          1 L35      -0.709500
     22 O4          27.1700    57.1680    19.2180 o          1 L35      -0.709500
     23 Cl1         29.1320    43.2700    22.7130 cl         1 L35      -0.213000
     24 Cl2         31.9810    45.6300    26.7390 cl         1 L35      -0.213000
     25 H2          31.1500    47.8990    25.2370 ha         1 L35       0.152500
     26 H4          30.7340    43.6290    25.0840 ha         1 L35       0.141000
     27 H6          28.8870    46.0450    22.0360 ha         1 L35       0.152500
     28 H9          30.6180    54.8820    23.7340 ha         1 L35       0.136000
     29 H10         30.6380    52.4450    24.0430 ha         1 L35       0.107000
     30 H12         28.2990    51.9860    20.4230 ha         1 L35       0.107000
     31 H13         28.2760    54.4180    20.1310 ha         1 L35       0.136000
     32 H151        31.0630    56.6370    19.7780 hc         1 L35       0.030367
     33 H152        29.9110    57.4030    18.6730 hc         1 L35       0.030367
     34 H153        29.7620    55.6840    19.0400 hc         1 L35       0.030367
     35 H161        29.1380    59.1810    20.3070 hc         1 L35       0.030367
     36 H162        30.4410    58.6100    21.3690 hc         1 L35       0.030367
     37 H163        28.7800    58.7490    21.9890 hc         1 L35       0.030367
     38 HN1         29.0910    48.3000    22.1060 hn         1 L35       0.146000
     39 HN2         28.9030    50.1550    21.6070 hn         1 L35       0.138000
     40 O2          29.5120    56.2230    21.8250 os         1 L35      -0.351100
@<TRIPOS>BOND
     1     1     2 ar  
     2     1     6 ar  
     3     1    18 1   
     4     2     3 ar  
     5     2    25 1   
     6     3     4 ar  
     7     3    24 1   
     8     4     5 ar  
     9     4    26 1   
    10     5     6 ar  
    11     5    23 1   
    12     6    27 1   
    13     7    18 1   
    14     7    19 1   
    15     7    20 2   
    16     8     9 ar  
    17     8    13 ar  
    18     8    40 1   
    19     9    10 ar  
    20     9    28 1   
    21    10    11 ar  
    22    10    29 1   
    23    11    12 ar  
    24    11    19 1   
    25    12    13 ar  
    26    12    30 1   
    27    13    31 1   
    28    14    15 1   
    29    14    16 1   
    30    14    17 1   
    31    14    40 1   
    32    15    32 1   
    33    15    33 1   
    34    15    34 1   
    35    16    35 1   
    36    16    36 1   
    37    16    37 1   
    38    17    21 1   
    39    17    22 1   
    40    18    38 1   
    41    19    39 1   
@<TRIPOS>SUBSTRUCTURE
     1 L35         1 TEMP              0 ****  ****    0 ROOT
