@<TRIPOS>MOLECULE
L35
   40    41     1     0     0
SMALL
abcg2


@<TRIPOS>ATOM
      1 C1          29.9940    47.2330    23.4420 ca         1 L35       0.035000
      2 C2          30.2320    47.3210    24.8180 ca         1 L35      -0.158500
      3 C3          30.3460    46.1490    25.5490 ca         1 L35       0.162000
      4 C4          30.2390    44.8870    24.9860 ca         1 L35      -0.143000
      5 C5          30.0030    44.8340    23.6180 ca         1 L35       0.162000
      6 C6          29.8780    45.9700    22.8430 ca         1 L35      -0.158500
      7 C7          29.9060    49.6810    22.9430 c          1 L35       0.660100
      8 C8          29.6830    54.7240    21.7800 ca         1 L35       0.200100
      9 C9          30.5460    54.0420    22.6440 ca         1 L35      -0.156500
     10 C10         30.5670    52.6580    22.6970 ca         1 L35      -0.096500
     11 C11         29.7070    51.9130    21.8870 ca         1 L35      -0.114000
     12 C12         28.8440    52.5890    21.0290 ca         1 L35      -0.096500
     13 C13         28.8290    53.9780    20.9660 ca         1 L35      -0.156500
     14 C14         29.0710    56.9290    20.8750 c3         1 L35       0.040000
     15 C15         29.6470    56.7190    19.4770 c3         1 L35      -0.078100
     16 C16         29.3910    58.3420    21.3610 c3         1 L35      -0.078100
     17 C17         27.5170    56.7560    20.9620 c          1 L35       0.699000
     18 N1          29.8640    48.3400    22.6050 ns         1 L35      -0.170000
     19 N2          29.7190    50.4990    21.8620 ns         1 L35      -0.149000
     20 O1          30.0970    50.0870    24.0840 o          1 L35      -0.606100
     21 O3          27.0410    56.4870    22.0880 o          1 L35      -0.709500
     22 O4          26.8750    56.9650    19.9040 o          1 L35      -0.709500
     23 CL1         29.8580    43.2680    22.8510 cl         1 L35      -0.213000
     24 CL2         30.6450    46.2710    27.2700 cl         1 L35      -0.213000
     25 H2          30.3270    48.2800    25.2950 ha         1 L35       0.152500
     26 H4          30.3340    43.9910    25.5790 ha         1 L35       0.141000
     27 H6          29.6920    45.8860    21.7800 ha         1 L35       0.152500
     28 H9          31.2140    54.6190    23.2710 ha         1 L35       0.136000
     29 H10         31.2530    52.1570    23.3630 ha         1 L35       0.107000
     30 H12         28.1720    52.0230    20.3960 ha         1 L35       0.107000
     31 H13         28.1410    54.4580    20.2880 ha         1 L35       0.136000
     32 H151        30.7310    56.8470    19.5120 hc         1 L35       0.030367
     33 H152        29.2310    57.4560    18.7940 hc         1 L35       0.030367
     34 H153        29.4270    55.7310    19.0780 hc         1 L35       0.030367
     35 H161        28.9030    59.0750    20.7190 hc         1 L35       0.030367
     36 H162        30.4690    58.5140    21.3320 hc         1 L35       0.030367
     37 H163        29.0380    58.4780    22.3830 hc         1 L35       0.030367
     38 HN1         29.7380    48.1190    21.6280 hn         1 L35       0.146000
     39 HN2         29.4020    50.0780    21.0030 hn         1 L35       0.138000
     40 O2          29.7620    56.0790    21.8270 os         1 L35      -0.351100
@<TRIPOS>BOND
     1     1     2 ar  
     2     1     6 ar  
     3     1    18 1   
     4     2     3 ar  
     5     2    25 1   
     6     3     4 ar  
     7     3    24 1   
     8     4     5 ar  
     9     4    26 1   
    10     5     6 ar  
    11     5    23 1   
    12     6    27 1   
    13     7    18 1   
    14     7    19 1   
    15     7    20 2   
    16     8     9 ar  
    17     8    13 ar  
    18     8    40 1   
    19     9    10 ar  
    20     9    28 1   
    21    10    11 ar  
    22    10    29 1   
    23    11    12 ar  
    24    11    19 1   
    25    12    13 ar  
    26    12    30 1   
    27    13    31 1   
    28    14    15 1   
    29    14    16 1   
    30    14    17 1   
    31    14    40 1   
    32    15    32 1   
    33    15    33 1   
    34    15    34 1   
    35    16    35 1   
    36    16    36 1   
    37    16    37 1   
    38    17    21 1   
    39    17    22 1   
    40    18    38 1   
    41    19    39 1   
@<TRIPOS>SUBSTRUCTURE
     1 L35         1 TEMP              0 ****  ****    0 ROOT
