@<TRIPOS>MOLECULE
L36
   44    44     1     0     0
SMALL
No Charge or Current Charge


@<TRIPOS>ATOM
      1 O            0.2040     0.7980     2.0090 o          1 L36      -0.656100
      2 C10          0.3420    -0.0090     1.1030 c          1 L36       0.665100
      3 N2           1.5270    -0.1120     0.4220 ns         1 L36      -0.530900
      4 C11          2.7260     0.7140     0.6910 c3         1 L36       0.060000
      5 C12          3.9090     0.3410    -0.2280 c          1 L36       0.583100
      6 O2           5.0120     1.1130     0.0310 os         1 L36      -0.444100
      7 C13          6.1980     0.8810    -0.7490 c3         1 L36       0.168600
      8 C14          7.2700     1.8680    -0.2620 c3         1 L36      -0.098100
      9 O1           3.8670    -0.5380    -1.0830 o          1 L36      -0.502000
     10 N           -0.6820    -0.8910     0.7040 n          1 L36      -0.424800
     11 C2          -0.5470    -1.8070    -0.4550 c3         1 L36       0.098000
     12 C1          -0.0130    -3.1980    -0.0570 c3         1 L36      -0.104400
     13 C            0.1240    -4.1540    -1.2570 c3         1 L36      -0.089100
     14 C3          -1.9910    -0.8800     1.3940 c3         1 L36       0.166300
     15 C4          -3.0610    -0.1060     0.6330 ca         1 L36      -0.156300
     16 C5          -4.0550    -0.7920    -0.0930 ca         1 L36      -0.055000
     17 C6          -5.0380    -0.0740    -0.7970 ca         1 L36      -0.182000
     18 C7          -5.0340     1.3280    -0.7800 ca         1 L36       0.293000
     19 N1          -5.9900     2.0240    -1.4660 nv         1 L36      -1.072000
     20 C8          -4.0470     2.0150    -0.0590 ca         1 L36      -0.182000
     21 C9          -3.0620     1.3020     0.6470 ca         1 L36      -0.055000
     22 H1           1.5800    -0.8170    -0.3010 hn         1 L36       0.338500
     23 H2           2.4920     1.7740     0.5320 h1         1 L36       0.080200
     24 H3           3.0470     0.5800     1.7310 h1         1 L36       0.080200
     25 H4           6.5600    -0.1480    -0.6160 h1         1 L36       0.050200
     26 H5           6.0040     1.0480    -1.8170 h1         1 L36       0.050200
     27 H6           6.9330     2.9020    -0.3990 hc         1 L36       0.049033
     28 H7           7.4880     1.7080     0.8010 hc         1 L36       0.049033
     29 H8           8.1980     1.7300    -0.8280 hc         1 L36       0.049033
     30 H9          -1.5340    -1.9350    -0.9190 h1         1 L36       0.051700
     31 H10          0.0980    -1.3620    -1.2230 h1         1 L36       0.051700
     32 H11          0.9660    -3.0880     0.4260 hc         1 L36       0.046200
     33 H12         -0.6860    -3.6470     0.6830 hc         1 L36       0.046200
     34 H13          0.8210    -3.7470    -2.0000 hc         1 L36       0.035367
     35 H14          0.5050    -5.1290    -0.9290 hc         1 L36       0.035367
     36 H15         -0.8470    -4.3110    -1.7420 hc         1 L36       0.035367
     37 H16         -2.3220    -1.9170     1.5320 h1         1 L36       0.061700
     38 H17         -1.8860    -0.4540     2.4010 h1         1 L36       0.061700
     39 H18         -4.0670    -1.8800    -0.1140 ha         1 L36       0.116000
     40 H19         -5.8000    -0.6110    -1.3540 ha         1 L36       0.111000
     41 H20         -6.6140     1.5320    -2.1030 hn         1 L36       0.446500
     42 H21         -5.9050     3.0330    -1.5740 hn         1 L36       0.446500
     43 H22         -4.0390     3.1010    -0.0420 ha         1 L36       0.111000
     44 H23         -2.3000     1.8430     1.2030 ha         1 L36       0.116000
@<TRIPOS>BOND
     1     1     2 2   
     2     2     3 1   
     3     2    10 1   
     4     3     4 1   
     5     3    22 1   
     6     4     5 1   
     7     4    23 1   
     8     4    24 1   
     9     5     6 1   
    10     5     9 2   
    11     6     7 1   
    12     7     8 1   
    13     7    25 1   
    14     7    26 1   
    15     8    27 1   
    16     8    28 1   
    17     8    29 1   
    18    10    11 1   
    19    10    14 1   
    20    11    12 1   
    21    11    30 1   
    22    11    31 1   
    23    12    13 1   
    24    12    32 1   
    25    12    33 1   
    26    13    34 1   
    27    13    35 1   
    28    13    36 1   
    29    14    15 1   
    30    14    37 1   
    31    14    38 1   
    32    15    16 ar  
    33    15    21 ar  
    34    16    17 ar  
    35    16    39 1   
    36    17    18 ar  
    37    17    40 1   
    38    18    19 1   
    39    18    20 ar  
    40    19    41 1   
    41    19    42 1   
    42    20    21 ar  
    43    20    43 1   
    44    21    44 1   
@<TRIPOS>SUBSTRUCTURE
     1 L36         1 TEMP              0 ****  ****    0 ROOT
