@<TRIPOS>MOLECULE
L36
   44    44     1     0     0
SMALL
abcg2


@<TRIPOS>ATOM
      1 O            0.3000     0.8050     1.9160 o          1 L36      -0.656100
      2 C10          0.4060     0.0110     0.9830 c          1 L36       0.665100
      3 N2           1.5770    -0.1030     0.3040 ns         1 L36      -0.530900
      4 C11          2.7090     0.7010     0.6620 c3         1 L36       0.060000
      5 C12          3.8940     0.3210    -0.1910 c          1 L36       0.583100
      6 O2           4.9430     1.0610     0.1050 os         1 L36      -0.444100
      7 C13          6.1690     0.8260    -0.6130 c3         1 L36       0.168600
      8 C14          7.2090     1.7730    -0.0660 c3         1 L36      -0.098100
      9 O1           3.8810    -0.5460    -1.0300 o          1 L36      -0.502000
     10 N           -0.6210    -0.7840     0.5710 n          1 L36      -0.424800
     11 C2          -0.5350    -1.7030    -0.5470 c3         1 L36       0.098000
     12 C1           0.0400    -3.0670    -0.1770 c3         1 L36      -0.104400
     13 C            0.0570    -4.0160    -1.3660 c3         1 L36      -0.089100
     14 C3          -1.8630    -0.8040     1.3250 c3         1 L36       0.166300
     15 C4          -2.9910    -0.0980     0.6220 ca         1 L36      -0.156300
     16 C5          -4.1130    -0.7880     0.1780 ca         1 L36      -0.055000
     17 C6          -5.1550    -0.1420    -0.4730 ca         1 L36      -0.182000
     18 C7          -5.1040     1.2350    -0.7040 ca         1 L36       0.293000
     19 N1          -6.1580     1.8990    -1.2990 nv         1 L36      -1.072000
     20 C8          -3.9720     1.9340    -0.2610 ca         1 L36      -0.182000
     21 C9          -2.9430     1.2760     0.3860 ca         1 L36      -0.055000
     22 H1           1.7140    -0.7790    -0.4270 hn         1 L36       0.338500
     23 H2           2.5140     1.7700     0.5240 h1         1 L36       0.080200
     24 H3           2.9890     0.5710     1.7120 h1         1 L36       0.080200
     25 H4           6.4760    -0.2120    -0.4790 h1         1 L36       0.050200
     26 H5           6.0050     0.9970    -1.6780 h1         1 L36       0.050200
     27 H6           6.9220     2.8140    -0.2150 hc         1 L36       0.049033
     28 H7           7.3840     1.6060     0.9970 hc         1 L36       0.049033
     29 H8           8.1490     1.6070    -0.5900 hc         1 L36       0.049033
     30 H9          -1.5450    -1.8290    -0.9450 h1         1 L36       0.051700
     31 H10          0.0300    -1.2550    -1.3690 h1         1 L36       0.051700
     32 H11          1.0530    -2.9490     0.2170 hc         1 L36       0.046200
     33 H12         -0.5550    -3.4960     0.6330 hc         1 L36       0.046200
     34 H13          0.6660    -3.6220    -2.1820 hc         1 L36       0.035367
     35 H14          0.4670    -4.9870    -1.0890 hc         1 L36       0.035367
     36 H15         -0.9490    -4.1810    -1.7560 hc         1 L36       0.035367
     37 H16         -2.1450    -1.8450     1.5070 h1         1 L36       0.061700
     38 H17         -1.6820    -0.3590     2.3010 h1         1 L36       0.061700
     39 H18         -4.1830    -1.8570     0.3440 ha         1 L36       0.116000
     40 H19         -6.0140    -0.7120    -0.8090 ha         1 L36       0.111000
     41 H20         -6.7600     1.3330    -1.8750 hn         1 L36       0.446500
     42 H21         -5.9260     2.7700    -1.7480 hn         1 L36       0.446500
     43 H22         -3.9060     3.0030    -0.4270 ha         1 L36       0.111000
     44 H23         -2.0840     1.8450     0.7220 ha         1 L36       0.116000
@<TRIPOS>BOND
     1     1     2 2   
     2     2     3 1   
     3     2    10 1   
     4     3     4 1   
     5     3    22 1   
     6     4     5 1   
     7     4    23 1   
     8     4    24 1   
     9     5     6 1   
    10     5     9 2   
    11     6     7 1   
    12     7     8 1   
    13     7    25 1   
    14     7    26 1   
    15     8    27 1   
    16     8    28 1   
    17     8    29 1   
    18    10    11 1   
    19    10    14 1   
    20    11    12 1   
    21    11    30 1   
    22    11    31 1   
    23    12    13 1   
    24    12    32 1   
    25    12    33 1   
    26    13    34 1   
    27    13    35 1   
    28    13    36 1   
    29    14    15 1   
    30    14    37 1   
    31    14    38 1   
    32    15    16 ar  
    33    15    21 ar  
    34    16    17 ar  
    35    16    39 1   
    36    17    18 ar  
    37    17    40 1   
    38    18    19 1   
    39    18    20 ar  
    40    19    41 1   
    41    19    42 1   
    42    20    21 ar  
    43    20    43 1   
    44    21    44 1   
@<TRIPOS>SUBSTRUCTURE
     1 L36         1 TEMP              0 ****  ****    0 ROOT
