@<TRIPOS>MOLECULE
L37
   48    49     1     0     0
SMALL
No Charge or Current Charge


@<TRIPOS>ATOM
      1 N2A          2.9390    -1.8090     6.7610 nv         1 L37      -1.065900
      2 N1           1.3420    -0.6730     5.5920 nb         1 L37      -0.267000
      3 C2           1.8130    -1.0680     6.7770 ca         1 L37       0.445900
      4 N3           1.3110    -0.8210     7.9870 nb         1 L37      -0.379000
      5 C4           0.1970    -0.0780     8.0170 ca         1 L37       0.372300
      6 O4A         -0.3090     0.1770     9.2540 oh         1 L37      -0.657300
      7 C5          -0.4320     0.4200     6.8380 ca         1 L37      -0.055000
      8 C6           0.2100     0.0570     5.6200 ca         1 L37       0.352900
      9 N7          -0.2570     0.5280     4.3720 ns         1 L37      -0.331900
     10 C8          -0.1190     0.0010     3.1060 c          1 L37       0.667100
     11 O8A          0.4320    -1.0670     2.8720 o          1 L37      -0.558100
     12 N9          -0.6960     0.8220     2.1470 ns         1 L37      -0.157000
     13 C1B         -0.8090     0.7150     0.7330 ca         1 L37      -0.035000
     14 C2B         -1.5140     1.7250     0.0590 ca         1 L37      -0.169000
     15 C3B         -1.6670     1.6900    -1.3370 ca         1 L37      -0.052000
     16 C4B         -1.1150     0.6380    -2.0990 ca         1 L37      -0.123600
     17 C5B         -0.4010    -0.3780    -1.4190 ca         1 L37      -0.052000
     18 C6B         -0.2510    -0.3380    -0.0210 ca         1 L37      -0.169000
     19 C7B         -1.2990     0.6320    -3.6060 c          1 L37       0.597700
     20 O7B         -1.9110     1.5210    -4.1860 o          1 L37      -0.644100
     21 N           -0.7480    -0.4340    -4.2910 ns         1 L37      -0.415900
     22 CA          -0.7710    -0.6260    -5.7630 c3         1 L37      -0.052300
     23 CB           0.5470    -0.1570    -6.4370 c3         1 L37      -0.054400
     24 CG           0.8570     1.3550    -6.2760 c3         1 L37      -0.200400
     25 CD           2.1200     1.7250    -7.0770 c          1 L37       0.713000
     26 OE1          3.2050     1.6250    -6.5250 o          1 L37      -0.761000
     27 OE2          1.9870     2.0540    -8.2460 o          1 L37      -0.761000
     28 C           -1.0770    -2.1160    -6.1010 c          1 L37       0.717000
     29 O           -2.0070    -2.3580    -6.8570 o          1 L37      -0.742500
     30 OXT         -0.4380    -2.9890    -5.5260 o          1 L37      -0.742500
     31 HN21         3.2220    -2.2280     5.8790 hn         1 L37       0.502000
     32 HN22         3.1890    -2.3160     7.6060 hn         1 L37       0.502000
     33 HO4          0.2970    -0.2660     9.8860 ho         1 L37       0.484000
     34 HN51        -2.0510     1.3750     7.7910 hn         1 L37       0.413500
     35 HN52        -2.1420     1.4150     6.0500 hn         1 L37       0.413500
     36 HN7         -0.7720     1.3950     4.4260 hn         1 L37       0.181000
     37 HN9         -1.1170     1.6610     2.5220 hn         1 L37       0.138000
     38 H2B         -1.9510     2.5490     0.6190 ha         1 L37       0.113000
     39 H3B         -2.2200     2.4900    -1.8270 ha         1 L37       0.134500
     40 H5B          0.0480    -1.2100    -1.9560 ha         1 L37       0.134500
     41 H6B          0.3070    -1.1390     0.4540 ha         1 L37       0.113000
     42 HN          -0.2880    -1.1450    -3.7370 hn         1 L37       0.298500
     43 HA          -1.5970    -0.0340    -6.1780 h1         1 L37       0.059700
     44 HB1          1.3860    -0.7420    -6.0380 hc         1 L37       0.049700
     45 HB2          0.4870    -0.3900    -7.5070 hc         1 L37       0.049700
     46 HG1         -0.0180     1.8840    -6.6750 hc         1 L37       0.010200
     47 HG2          1.0240     1.5210    -5.2050 hc         1 L37       0.010200
     48 N5A         -1.6020     1.2030     6.8890 nv         1 L37      -1.026000
@<TRIPOS>BOND
     1     1     3 1   
     2     1    31 1   
     3     1    32 1   
     4     2     3 ar  
     5     2     8 ar  
     6     3     4 ar  
     7     4     5 ar  
     8     5     6 1   
     9     5     7 ar  
    10     6    33 1   
    11     7     8 ar  
    12     7    48 1   
    13     8     9 1   
    14     9    10 1   
    15     9    36 1   
    16    10    11 2   
    17    10    12 1   
    18    12    13 1   
    19    12    37 1   
    20    13    14 ar  
    21    13    18 ar  
    22    14    15 ar  
    23    14    38 1   
    24    15    16 ar  
    25    15    39 1   
    26    16    17 ar  
    27    16    19 1   
    28    17    18 ar  
    29    17    40 1   
    30    18    41 1   
    31    19    20 2   
    32    19    21 1   
    33    21    22 1   
    34    21    42 1   
    35    22    23 1   
    36    22    28 1   
    37    22    43 1   
    38    23    24 1   
    39    23    44 1   
    40    23    45 1   
    41    24    25 1   
    42    24    46 1   
    43    24    47 1   
    44    25    26 1   
    45    25    27 1   
    46    28    29 1   
    47    28    30 1   
    48    34    48 1   
    49    35    48 1   
@<TRIPOS>SUBSTRUCTURE
     1 L37         1 TEMP              0 ****  ****    0 ROOT
