@<TRIPOS>MOLECULE
L37
   48    49     1     0     0
SMALL
bcc


@<TRIPOS>ATOM
      1 N2A          3.3980    -1.0690     6.4560 nv         1 L37      -0.955500
      2 N1           1.5010    -0.4180     5.3640 nb         1 L37      -0.793000
      3 C2           2.1150    -0.6700     6.5210 ca         1 L37       0.971900
      4 N3           1.5830    -0.5400     7.7390 nb         1 L37      -0.905000
      5 C4           0.3330    -0.1170     7.7880 ca         1 L37       0.700600
      6 O4A         -0.2310     0.0260     8.9820 oh         1 L37      -0.618300
      7 C5          -0.4230     0.1910     6.6610 ca         1 L37      -0.324000
      8 C6           0.2520     0.0070     5.4460 ca         1 L37       0.681200
      9 N7          -0.4710     0.3080     4.3150 ns         1 L37      -0.565400
     10 C8          -0.1070     0.1770     2.9950 c          1 L37       0.801100
     11 O8A          0.9480    -0.2790     2.6100 o          1 L37      -0.558100
     12 N9          -1.0970     0.6300     2.1600 ns         1 L37      -0.483100
     13 C1B         -1.1180     0.6270     0.7700 ca         1 L37       0.057600
     14 C2B         -2.3120     1.0350     0.1620 ca         1 L37      -0.187000
     15 C3B         -2.4310     1.0790    -1.2110 ca         1 L37      -0.070000
     16 C4B         -1.3730     0.7020    -2.0370 ca         1 L37      -0.123600
     17 C5B         -0.1850     0.3090    -1.4270 ca         1 L37      -0.070000
     18 C6B         -0.0450     0.2680    -0.0490 ca         1 L37      -0.187000
     19 C7B         -1.5590     0.7800    -3.5160 c          1 L37       0.664700
     20 O7B         -2.4600     1.4600    -3.9970 o          1 L37      -0.644100
     21 N           -0.6800     0.1020    -4.2660 ns         1 L37      -0.482900
     22 CA          -0.8070    -0.0080    -5.7020 c3         1 L37      -0.052300
     23 CB           0.5470    -0.3710    -6.3130 c3         1 L37      -0.054400
     24 CG           1.6140     0.6860    -6.0750 c3         1 L37      -0.200400
     25 CD           2.9760     0.4300    -6.7430 c          1 L37       0.923600
     26 OE1          3.1370    -0.6450    -7.3540 o          1 L37      -0.866300
     27 OE2          3.8260     1.3370    -6.6120 o          1 L37      -0.866300
     28 C           -1.8940    -1.0280    -6.1260 c          1 L37       0.927600
     29 O           -2.2250    -0.9770    -7.3280 o          1 L37      -0.847800
     30 OXT         -2.3180    -1.8140    -5.2610 o          1 L37      -0.847800
     31 HN21         3.7940    -1.3140     5.5660 hn         1 L37       0.446800
     32 HN22         3.8590    -1.4000     7.2840 hn         1 L37       0.446800
     33 HO4          0.4160    -0.2090     9.6620 ho         1 L37       0.445000
     34 HN51        -1.8690     1.5020     7.2040 hn         1 L37       0.358300
     35 HN52        -2.4030    -0.0300     7.0400 hn         1 L37       0.358300
     36 HN7         -1.3950     0.6540     4.5510 hn         1 L37       0.347500
     37 HN9         -1.9380     0.9860     2.5870 hn         1 L37       0.304500
     38 H2B         -3.1560     1.3230     0.7770 ha         1 L37       0.131000
     39 H3B         -3.3650     1.4070    -1.6470 ha         1 L37       0.152500
     40 H5B          0.6830     0.0450    -2.0190 ha         1 L37       0.152500
     41 H6B          0.8990    -0.0350     0.3700 ha         1 L37       0.131000
     42 HN          -0.1210    -0.6060    -3.8160 hn         1 L37       0.298500
     43 HA          -1.0980     0.9740    -6.0860 h1         1 L37       0.059700
     44 HB1          0.8790    -1.3390    -5.9210 hc         1 L37       0.049700
     45 HB2          0.3990    -0.5130    -7.3840 hc         1 L37       0.049700
     46 HG1          1.2420     1.6600    -6.4170 hc         1 L37       0.010200
     47 HG2          1.7850     0.8150    -5.0010 hc         1 L37       0.010200
     48 N5A         -1.7610     0.6550     6.6610 nv         1 L37      -0.777200
@<TRIPOS>BOND
     1     1     3 1   
     2     1    31 1   
     3     1    32 1   
     4     2     3 ar  
     5     2     8 ar  
     6     3     4 ar  
     7     4     5 ar  
     8     5     6 1   
     9     5     7 ar  
    10     6    33 1   
    11     7     8 ar  
    12     7    48 1   
    13     8     9 1   
    14     9    10 1   
    15     9    36 1   
    16    10    11 2   
    17    10    12 1   
    18    12    13 1   
    19    12    37 1   
    20    13    14 ar  
    21    13    18 ar  
    22    14    15 ar  
    23    14    38 1   
    24    15    16 ar  
    25    15    39 1   
    26    16    17 ar  
    27    16    19 1   
    28    17    18 ar  
    29    17    40 1   
    30    18    41 1   
    31    19    20 2   
    32    19    21 1   
    33    21    22 1   
    34    21    42 1   
    35    22    23 1   
    36    22    28 1   
    37    22    43 1   
    38    23    24 1   
    39    23    44 1   
    40    23    45 1   
    41    24    25 1   
    42    24    46 1   
    43    24    47 1   
    44    25    26 1   
    45    25    27 1   
    46    28    29 1   
    47    28    30 1   
    48    34    48 1   
    49    35    48 1   
@<TRIPOS>SUBSTRUCTURE
     1 L37         1 TEMP              0 ****  ****    0 ROOT
