@<TRIPOS>MOLECULE
L39
   72    75     1     0     0
SMALL
No Charge or Current Charge


@<TRIPOS>ATOM
      1 I1           7.9200    -1.7800    -1.4230 i          1 L39      -0.303000
      2 C18         -1.8450    -0.4490    -1.5200 c3         1 L39      -0.084100
      3 C13         -2.1200    -0.2450     0.0120 c5         1 L39      -0.034000
      4 C12         -2.8470    -1.5090     0.5680 c6         1 L39      -0.061400
      5 C11         -4.2800    -1.6630    -0.0270 c6         1 L39      -0.072400
      6 C9          -5.1810    -0.3820     0.1270 c6         1 L39      -0.046700
      7 C10         -6.6010    -0.5220    -0.5640 c6         1 L39       0.002200
      8 C19         -6.4810    -0.8670    -2.0900 c3         1 L39      -0.080100
      9 C1          -7.4270    -1.6300     0.1770 c6         1 L39      -0.067400
     10 C2          -8.9280    -1.6520    -0.2010 c6         1 L39      -0.072400
     11 C3          -9.5790    -0.2770     0.0560 c6         1 L39       0.173300
     12 O1         -10.9640    -0.3190    -0.3000 oh         1 L39      -0.660000
     13 C4          -8.8530     0.8210    -0.7540 c6         1 L39      -0.074200
     14 C5          -7.3470     0.8610    -0.4710 c2         1 L39      -0.105400
     15 C6          -6.7500     2.0500    -0.1880 c2         1 L39      -0.218200
     16 C7          -5.2660     2.1910     0.0930 c6         1 L39      -0.037200
     17 C8          -4.4390     0.9350    -0.3090 c6         1 L39      -0.041700
     18 C14         -3.0380     0.9760     0.3610 c5         1 L39      -0.062700
     19 C15         -2.1200     2.2230     0.1640 c5         1 L39      -0.180400
     20 C16         -0.6860     1.6800     0.1890 c          1 L39       0.575100
     21 O16          0.2310     2.0520    -0.5330 o          1 L39      -0.520100
     22 C17         -0.8260     0.2480     0.7770 c5         1 L39      -0.161700
     23 C20          0.5030    -0.5890     0.6780 c3         1 L39      -0.143700
     24 C21          0.4060    -2.0330     1.2290 c3         1 L39      -0.085100
     25 C22          1.6840     0.1570     1.3990 c          1 L39       0.588100
     26 O22          1.5910     0.4720     2.5790 o          1 L39      -0.524100
     27 C24          4.0620    -0.6170     0.8130 c3         1 L39      -0.065400
     28 C25          5.3350    -0.4550    -0.0630 c3         1 L39      -0.057700
     29 C27          6.0970     0.8620     0.2370 c3         1 L39      -0.093100
     30 C26          6.2550    -1.6930     0.0860 c3         1 L39       0.120600
     31 H1          -1.1950    -1.3160    -1.6880 hc         1 L39       0.036033
     32 H2          -2.7590    -0.6210    -2.0970 hc         1 L39       0.036033
     33 H3          -1.3570     0.4130    -1.9860 hc         1 L39       0.036033
     34 H4          -2.2820    -2.4190     0.3400 hc         1 L39       0.043700
     35 H5          -2.9110    -1.4520     1.6630 hc         1 L39       0.043700
     36 H6          -4.1970    -1.9560    -1.0780 hc         1 L39       0.042200
     37 H7          -4.7620    -2.5130     0.4730 hc         1 L39       0.042200
     38 H8          -5.3650    -0.2740     1.2060 hc         1 L39       0.047700
     39 H9          -6.0660    -1.8670    -2.2550 hc         1 L39       0.035700
     40 H10         -7.4540    -0.8570    -2.5920 hc         1 L39       0.035700
     41 H11         -5.8480    -0.1500    -2.6250 hc         1 L39       0.035700
     42 H12         -7.0010    -2.6220    -0.0230 hc         1 L39       0.042200
     43 H13         -7.3510    -1.4820     1.2630 hc         1 L39       0.042200
     44 H14         -9.0550    -1.9430    -1.2530 hc         1 L39       0.053700
     45 H15         -9.4410    -2.4190     0.3940 hc         1 L39       0.053700
     46 H16         -9.4780    -0.0410     1.1270 h1         1 L39       0.030700
     47 H17        -11.3430     0.5540    -0.0550 ho         1 L39       0.442000
     48 H18         -9.0180     0.6560    -1.8270 hc         1 L39       0.050700
     49 H19         -9.3070     1.7960    -0.5310 hc         1 L39       0.050700
     50 H20         -7.3300     2.9740    -0.1510 ha         1 L39       0.171000
     51 H21         -4.8780     3.0690    -0.4400 hc         1 L39       0.048200
     52 H22         -5.1400     2.4020     1.1640 hc         1 L39       0.048200
     53 H23         -4.3120     0.9480    -1.3980 hc         1 L39       0.056700
     54 H24         -3.2800     0.9320     1.4320 hc         1 L39       0.049700
     55 H25         -2.2930     2.7870    -0.7590 hc         1 L39       0.075700
     56 H26         -2.2500     2.8890     1.0240 hc         1 L39       0.075700
     57 H27         -1.0960     0.3490     1.8360 hc         1 L39       0.091700
     58 H28          0.7920    -0.6850    -0.3750 hc         1 L39       0.063700
     59 H29         -0.0980    -2.0520     2.2030 hc         1 L39       0.042033
     60 H30         -0.1350    -2.6840     0.5350 hc         1 L39       0.042033
     61 H31          1.4050    -2.4680     1.3550 hc         1 L39       0.042033
     62 H34          2.7560     0.5250    -0.4590 hc         1 L39       0.065200
     63 H35          3.3780     1.4460     0.9590 hc         1 L39       0.065200
     64 H36          4.3490    -0.6500     1.8730 hc         1 L39       0.054200
     65 H37          3.6050    -1.5890     0.5860 hc         1 L39       0.054200
     66 H38          5.0110    -0.4230    -1.1110 hc         1 L39       0.055700
     67 H39          5.4750     1.7370     0.0200 hc         1 L39       0.041033
     68 H40          6.3990     0.9060     1.2900 hc         1 L39       0.041033
     69 H41          6.9980     0.9480    -0.3800 hc         1 L39       0.041033
     70 H42          5.6880    -2.6210    -0.0670 h1         1 L39       0.070700
     71 H43          6.7310    -1.7180     1.0750 h1         1 L39       0.070700
     72 C23          2.9890     0.4830     0.6110 c3         1 L39      -0.176400
@<TRIPOS>BOND
     1     1    30 1   
     2     2     3 1   
     3     2    31 1   
     4     2    32 1   
     5     2    33 1   
     6     3     4 1   
     7     3    18 1   
     8     3    22 1   
     9     4     5 1   
    10     4    34 1   
    11     4    35 1   
    12     5     6 1   
    13     5    36 1   
    14     5    37 1   
    15     6     7 1   
    16     6    17 1   
    17     6    38 1   
    18     7     8 1   
    19     7     9 1   
    20     7    14 1   
    21     8    39 1   
    22     8    40 1   
    23     8    41 1   
    24     9    10 1   
    25     9    42 1   
    26     9    43 1   
    27    10    11 1   
    28    10    44 1   
    29    10    45 1   
    30    11    12 1   
    31    11    13 1   
    32    11    46 1   
    33    12    47 1   
    34    13    14 1   
    35    13    48 1   
    36    13    49 1   
    37    14    15 2   
    38    15    16 1   
    39    15    50 1   
    40    16    17 1   
    41    16    51 1   
    42    16    52 1   
    43    17    18 1   
    44    17    53 1   
    45    18    19 1   
    46    18    54 1   
    47    19    20 1   
    48    19    55 1   
    49    19    56 1   
    50    20    21 2   
    51    20    22 1   
    52    22    23 1   
    53    22    57 1   
    54    23    24 1   
    55    23    25 1   
    56    23    58 1   
    57    24    59 1   
    58    24    60 1   
    59    24    61 1   
    60    25    26 2   
    61    25    72 1   
    62    27    28 1   
    63    27    64 1   
    64    27    65 1   
    65    27    72 1   
    66    28    29 1   
    67    28    30 1   
    68    28    66 1   
    69    29    67 1   
    70    29    68 1   
    71    29    69 1   
    72    30    70 1   
    73    30    71 1   
    74    62    72 1   
    75    63    72 1   
@<TRIPOS>SUBSTRUCTURE
     1 L39         1 TEMP              0 ****  ****    0 ROOT
