@<TRIPOS>MOLECULE
L39
   72    75     1     0     0
SMALL
bcc


@<TRIPOS>ATOM
      1 I1           8.5500    -0.7380     0.5170 i          1 L39      -0.308900
      2 C18         -1.9590    -0.4550    -1.6380 c3         1 L39      -0.084100
      3 C13         -2.1810    -0.4730    -0.1220 c5         1 L39      -0.034000
      4 C12         -2.9730    -1.7060     0.2990 c6         1 L39      -0.061400
      5 C11         -4.4010    -1.6580    -0.2450 c6         1 L39      -0.072400
      6 C9          -5.1690    -0.3790     0.1120 c6         1 L39      -0.046700
      7 C10         -6.5900    -0.3380    -0.5070 c6         1 L39       0.002200
      8 C19         -6.5530    -0.5880    -2.0240 c3         1 L39      -0.080100
      9 C1          -7.4550    -1.4180     0.1770 c6         1 L39      -0.067400
     10 C2          -8.9400    -1.3390    -0.1540 c6         1 L39      -0.072400
     11 C3          -9.4950     0.0200     0.2240 c6         1 L39       0.150100
     12 O1         -10.8710     0.0490    -0.0970 oh         1 L39      -0.597800
     13 C4          -8.7180     1.1140    -0.5030 c6         1 L39      -0.074200
     14 C5          -7.2350     1.0160    -0.2570 c2         1 L39      -0.105400
     15 C6          -6.5460     2.0800     0.1550 c2         1 L39      -0.168200
     16 C7          -5.0710     2.1080     0.3800 c6         1 L39      -0.037200
     17 C8          -4.3640     0.8900    -0.2020 c6         1 L39      -0.041700
     18 C14         -2.9690     0.7540     0.3840 c5         1 L39      -0.062700
     19 C15         -1.9980     1.9180     0.2470 c5         1 L39      -0.180400
     20 C16         -0.6490     1.2620     0.4520 c          1 L39       0.575100
     21 O16          0.4180     1.8280     0.4530 o          1 L39      -0.520100
     22 C17         -0.8340    -0.2420     0.6000 c5         1 L39      -0.161700
     23 C20          0.4160    -1.0030     0.1710 c3         1 L39      -0.143700
     24 C21          0.2840    -2.5250     0.3000 c3         1 L39      -0.085100
     25 C22          1.6140    -0.6090     1.0220 c          1 L39       0.588100
     26 O22          1.5340    -0.5160     2.2270 o          1 L39      -0.524100
     27 C24          4.1410    -0.3000     1.1570 c3         1 L39      -0.065400
     28 C25          5.4560    -0.3550     0.3620 c3         1 L39      -0.057700
     29 C27          5.5550     0.7770    -0.6510 c3         1 L39      -0.093100
     30 C26          6.5820    -0.3290     1.3810 c3         1 L39       0.126500
     31 H1          -1.4330    -1.3570    -1.9560 hc         1 L39       0.036033
     32 H2          -2.8910    -0.4210    -2.2020 hc         1 L39       0.036033
     33 H3          -1.3600     0.3960    -1.9700 hc         1 L39       0.036033
     34 H4          -2.5010    -2.6260    -0.0510 hc         1 L39       0.043700
     35 H5          -2.9910    -1.7590     1.3940 hc         1 L39       0.043700
     36 H6          -4.3660    -1.7820    -1.3300 hc         1 L39       0.042200
     37 H7          -4.9420    -2.5280     0.1340 hc         1 L39       0.042200
     38 H8          -5.3070    -0.3830     1.2040 hc         1 L39       0.047700
     39 H9          -6.3190    -1.6280    -2.2560 hc         1 L39       0.035700
     40 H10         -7.5100    -0.3640    -2.4940 hc         1 L39       0.035700
     41 H11         -5.8060     0.0430    -2.5110 hc         1 L39       0.035700
     42 H12         -7.0850    -2.4090    -0.0920 hc         1 L39       0.042200
     43 H13         -7.3310    -1.3270     1.2620 hc         1 L39       0.042200
     44 H14         -9.1050    -1.5200    -1.2220 hc         1 L39       0.053700
     45 H15         -9.4740    -2.1260     0.3850 hc         1 L39       0.053700
     46 H16         -9.3530     0.1590     1.3070 h1         1 L39       0.030700
     47 H17        -11.2320     0.8900     0.2000 ho         1 L39       0.403000
     48 H18         -8.9340     1.0280    -1.5740 hc         1 L39       0.050700
     49 H19         -9.0750     2.1000    -0.1910 hc         1 L39       0.050700
     50 H20         -7.0830     3.0070     0.3380 ha         1 L39       0.121000
     51 H21         -4.6560     3.0260    -0.0480 hc         1 L39       0.048200
     52 H22         -4.8690     2.1760     1.4580 hc         1 L39       0.048200
     53 H23         -4.2950     1.0210    -1.2890 hc         1 L39       0.056700
     54 H24         -3.1100     0.5870     1.4620 hc         1 L39       0.049700
     55 H25         -2.0210     2.3750    -0.7490 hc         1 L39       0.075700
     56 H26         -2.1520     2.7230     0.9670 hc         1 L39       0.075700
     57 H27         -1.0090    -0.4260     1.6720 hc         1 L39       0.091700
     58 H28          0.6430    -0.7670    -0.8730 hc         1 L39       0.063700
     59 H29         -0.0660    -2.8070     1.2930 hc         1 L39       0.042033
     60 H30         -0.4150    -2.9250    -0.4320 hc         1 L39       0.042033
     61 H31          1.2410    -3.0190     0.1240 hc         1 L39       0.042033
     62 H34          3.0190    -1.3100    -0.3970 hc         1 L39       0.065200
     63 H35          2.7810     0.4080    -0.3890 hc         1 L39       0.065200
     64 H36          4.0900     0.6420     1.7120 hc         1 L39       0.054200
     65 H37          4.1460    -1.0990     1.9040 hc         1 L39       0.054200
     66 H38          5.4830    -1.3140    -0.1660 hc         1 L39       0.055700
     67 H39          4.7390     0.7350    -1.3710 hc         1 L39       0.041033
     68 H40          5.5140     1.7480    -0.1530 hc         1 L39       0.041033
     69 H41          6.4840     0.7340    -1.2200 hc         1 L39       0.041033
     70 H42          6.4610    -1.0990     2.1400 h1         1 L39       0.070700
     71 H43          6.6770     0.6430     1.8640 h1         1 L39       0.070700
     72 C23          2.9120    -0.4520     0.2770 c3         1 L39      -0.176400
@<TRIPOS>BOND
     1     1    30 1   
     2     2     3 1   
     3     2    31 1   
     4     2    32 1   
     5     2    33 1   
     6     3     4 1   
     7     3    18 1   
     8     3    22 1   
     9     4     5 1   
    10     4    34 1   
    11     4    35 1   
    12     5     6 1   
    13     5    36 1   
    14     5    37 1   
    15     6     7 1   
    16     6    17 1   
    17     6    38 1   
    18     7     8 1   
    19     7     9 1   
    20     7    14 1   
    21     8    39 1   
    22     8    40 1   
    23     8    41 1   
    24     9    10 1   
    25     9    42 1   
    26     9    43 1   
    27    10    11 1   
    28    10    44 1   
    29    10    45 1   
    30    11    12 1   
    31    11    13 1   
    32    11    46 1   
    33    12    47 1   
    34    13    14 1   
    35    13    48 1   
    36    13    49 1   
    37    14    15 2   
    38    15    16 1   
    39    15    50 1   
    40    16    17 1   
    41    16    51 1   
    42    16    52 1   
    43    17    18 1   
    44    17    53 1   
    45    18    19 1   
    46    18    54 1   
    47    19    20 1   
    48    19    55 1   
    49    19    56 1   
    50    20    21 2   
    51    20    22 1   
    52    22    23 1   
    53    22    57 1   
    54    23    24 1   
    55    23    25 1   
    56    23    58 1   
    57    24    59 1   
    58    24    60 1   
    59    24    61 1   
    60    25    26 2   
    61    25    72 1   
    62    27    28 1   
    63    27    64 1   
    64    27    65 1   
    65    27    72 1   
    66    28    29 1   
    67    28    30 1   
    68    28    66 1   
    69    29    67 1   
    70    29    68 1   
    71    29    69 1   
    72    30    70 1   
    73    30    71 1   
    74    62    72 1   
    75    63    72 1   
@<TRIPOS>SUBSTRUCTURE
     1 L39         1 TEMP              0 ****  ****    0 ROOT
