@<TRIPOS>MOLECULE
L3A
   33    32     1     0     0
SMALL
No Charge or Current Charge


@<TRIPOS>ATOM
      1 P           -0.2570     0.3550     0.2210 p5         1 L3A       1.390000
      2 C1          -2.9210    -0.8350     0.3990 c3         1 L3A      -0.061400
      3 N1          -1.1410    -2.5270     0.0620 n8         1 L3A      -0.958200
      4 C2          -1.4940    -1.0680    -0.1930 c3         1 L3A      -0.183500
      5 C4           1.3780    -0.2950    -0.3590 c3         1 L3A      -0.408400
      6 C5           2.6860     0.4410     0.1040 c3         1 L3A      -0.147700
      7 C6           3.9780    -0.3780    -0.1990 c          1 L3A       0.715000
      8 C7           2.8040     1.8730    -0.4730 c3         1 L3A      -0.064100
      9 C8          -3.6790     0.4530    -0.0390 c3         1 L3A      -0.062700
     10 O31         -0.2040     0.5900     1.7010 o          1 L3A      -0.844000
     11 O32         -0.5920     1.5980    -0.5470 o          1 L3A      -0.844000
     12 O61          4.6620    -0.7470     0.7460 o          1 L3A      -0.770500
     13 O62          4.2670    -0.6230    -1.3620 o          1 L3A      -0.770500
     14 C81         -3.9120     0.5250    -1.5690 c3         1 L3A      -0.075600
     15 C82         -5.0220     0.5820     0.7180 c3         1 L3A      -0.075600
     16 H1          -3.5560    -1.6940     0.1440 hc         1 L3A       0.008200
     17 H1A         -2.8410    -0.8350     1.4940 hc         1 L3A       0.008200
     18 HN1         -0.9950    -2.6810     1.0680 hn         1 L3A       0.367500
     19 HN1A        -1.9440    -3.1250    -0.1650 hn         1 L3A       0.367500
     20 H2          -1.5710    -0.9760    -1.2830 h1         1 L3A       0.049700
     21 H4           1.4180    -1.3290    -0.0050 hc         1 L3A       0.047200
     22 H4A          1.3320    -0.3330    -1.4520 hc         1 L3A       0.047200
     23 H5           2.6280     0.5430     1.1950 hc         1 L3A       0.041700
     24 H7           1.9840     2.5100    -0.1210 hc         1 L3A       0.009700
     25 H7A          3.7450     2.3370    -0.1520 hc         1 L3A       0.009700
     26 H7B          2.7860     1.8600    -1.5690 hc         1 L3A       0.009700
     27 H8          -3.0820     1.3260     0.2480 hc         1 L3A       0.098700
     28 H81         -2.9640     0.5720    -2.1150 hc         1 L3A       0.015700
     29 H81A        -4.4710    -0.3510    -1.9200 hc         1 L3A       0.015700
     30 H81B        -4.4860     1.4230    -1.8300 hc         1 L3A       0.015700
     31 H82         -4.8570     0.5880     1.8020 hc         1 L3A       0.015700
     32 H82A        -5.5310     1.5150     0.4500 hc         1 L3A       0.015700
     33 H82B        -5.6890    -0.2550     0.4760 hc         1 L3A       0.015700
@<TRIPOS>BOND
     1     1     4 1   
     2     1     5 1   
     3     1    10 1   
     4     1    11 1   
     5     2     4 1   
     6     2     9 1   
     7     2    16 1   
     8     2    17 1   
     9     3     4 1   
    10     3    18 1   
    11     3    19 1   
    12     4    20 1   
    13     5     6 1   
    14     5    21 1   
    15     5    22 1   
    16     6     7 1   
    17     6     8 1   
    18     6    23 1   
    19     7    12 1   
    20     7    13 1   
    21     8    24 1   
    22     8    25 1   
    23     8    26 1   
    24     9    14 1   
    25     9    15 1   
    26     9    27 1   
    27    14    28 1   
    28    14    29 1   
    29    14    30 1   
    30    15    31 1   
    31    15    32 1   
    32    15    33 1   
@<TRIPOS>SUBSTRUCTURE
     1 L3A         1 TEMP              0 ****  ****    0 ROOT
