@<TRIPOS>MOLECULE
L3A
   33    32     1     0     0
SMALL
abcg2


@<TRIPOS>ATOM
      1 P           -0.2380     0.2390     0.4000 p5         1 L3A       1.390000
      2 C1          -2.9000    -0.7230     0.4450 c3         1 L3A      -0.061400
      3 N1          -1.0180    -2.3370     0.3240 n8         1 L3A      -0.958200
      4 C2          -1.5000    -1.0260    -0.1090 c3         1 L3A      -0.183500
      5 C4           1.2700    -0.3120    -0.4990 c3         1 L3A      -0.408400
      6 C5           2.5670     0.3070     0.0160 c3         1 L3A      -0.147700
      7 C6           3.8430    -0.4100    -0.4890 c          1 L3A       0.715000
      8 C7           2.6550     1.8020    -0.2960 c3         1 L3A      -0.064100
      9 C8          -3.6350     0.5230    -0.0570 c3         1 L3A      -0.062700
     10 O31         -0.0190     0.0480     1.8950 o          1 L3A      -0.844000
     11 O32         -0.6650     1.6130    -0.0910 o          1 L3A      -0.844000
     12 O61          4.9290     0.0640    -0.0870 o          1 L3A      -0.770500
     13 O62          3.7160    -1.3970    -1.2400 o          1 L3A      -0.770500
     14 C81         -3.6550     0.6060    -1.5790 c3         1 L3A      -0.075600
     15 C82         -5.0560     0.5340     0.4990 c3         1 L3A      -0.075600
     16 H1          -3.5310    -1.5950     0.2210 hc         1 L3A       0.008200
     17 H1A         -2.8320    -0.6770     1.5380 hc         1 L3A       0.008200
     18 HN1         -0.8800    -2.3120     1.3270 hn         1 L3A       0.367500
     19 HN1A        -1.7390    -3.0320     0.1600 hn         1 L3A       0.367500
     20 H2          -1.5410    -1.0340    -1.2040 h1         1 L3A       0.049700
     21 H4           1.3210    -1.3980    -0.4080 hc         1 L3A       0.047200
     22 H4A          1.1440    -0.1030    -1.5670 hc         1 L3A       0.047200
     23 H5           2.5720     0.2020     1.1080 hc         1 L3A       0.041700
     24 H7           1.7970     2.3430     0.1010 hc         1 L3A       0.009700
     25 H7A          3.5610     2.2390     0.1230 hc         1 L3A       0.009700
     26 H7B          2.6720     1.9740    -1.3760 hc         1 L3A       0.009700
     27 H8          -3.1110     1.4040     0.3160 hc         1 L3A       0.098700
     28 H81         -2.6520     0.7480    -1.9790 hc         1 L3A       0.015700
     29 H81A        -4.0720    -0.3040    -2.0220 hc         1 L3A       0.015700
     30 H81B        -4.2660     1.4450    -1.9190 hc         1 L3A       0.015700
     31 H82         -5.0620     0.4760     1.5900 hc         1 L3A       0.015700
     32 H82A        -5.5870     1.4460     0.2150 hc         1 L3A       0.015700
     33 H82B        -5.6320    -0.3150     0.1210 hc         1 L3A       0.015700
@<TRIPOS>BOND
     1     1     4 1   
     2     1     5 1   
     3     1    10 1   
     4     1    11 1   
     5     2     4 1   
     6     2     9 1   
     7     2    16 1   
     8     2    17 1   
     9     3     4 1   
    10     3    18 1   
    11     3    19 1   
    12     4    20 1   
    13     5     6 1   
    14     5    21 1   
    15     5    22 1   
    16     6     7 1   
    17     6     8 1   
    18     6    23 1   
    19     7    12 1   
    20     7    13 1   
    21     8    24 1   
    22     8    25 1   
    23     8    26 1   
    24     9    14 1   
    25     9    15 1   
    26     9    27 1   
    27    14    28 1   
    28    14    29 1   
    29    14    30 1   
    30    15    31 1   
    31    15    32 1   
    32    15    33 1   
@<TRIPOS>SUBSTRUCTURE
     1 L3A         1 TEMP              0 ****  ****    0 ROOT
