@<TRIPOS>MOLECULE
L3C
   17    17     1     0     0
SMALL
No Charge or Current Charge


@<TRIPOS>ATOM
      1 C01          3.2490     1.5330    17.5880 ca         1 L3C      -0.117000
      2 C02          3.4230     2.8530    17.1370 ca         1 L3C      -0.094000
      3 C03          4.4420     3.6740    17.6750 ca         1 L3C      -0.117600
      4 C04          5.2820     3.1320    18.6770 ca         1 L3C      -0.094000
      5 C05          5.1060     1.8110    19.1250 ca         1 L3C      -0.117000
      6 C06          4.0890     1.0040    18.5850 ca         1 L3C      -0.149300
      7 C07          3.8990    -0.4280    19.0730 c3         1 L3C       0.210900
      8 C09          4.6310     5.1040    17.1880 c          1 L3C       0.712600
      9 O10          3.8820     5.5320    16.3210 o          1 L3C      -0.717500
     10 O11          5.5250     5.7780    17.6810 o          1 L3C      -0.717500
     11 Cl08         4.8890    -1.5930    18.0870 cl         1 L3C      -0.337000
     12 H011         2.4600     0.9200    17.1580 ha         1 L3C       0.087500
     13 H021         2.7590     3.2370    16.3650 ha         1 L3C       0.128500
     14 H041         6.0760     3.7340    19.1120 ha         1 L3C       0.128500
     15 H051         5.7650     1.4150    19.8950 ha         1 L3C       0.087500
     16 H071         2.8470    -0.7290    18.9890 h1         1 L3C       0.051700
     17 H072         4.2130    -0.5250    20.1200 h1         1 L3C       0.051700
@<TRIPOS>BOND
     1     1     2 ar  
     2     1     6 ar  
     3     1    12 1   
     4     2     3 ar  
     5     2    13 1   
     6     3     4 ar  
     7     3     8 1   
     8     4     5 ar  
     9     4    14 1   
    10     5     6 ar  
    11     5    15 1   
    12     6     7 1   
    13     7    11 1   
    14     7    16 1   
    15     7    17 1   
    16     8     9 1   
    17     8    10 1   
@<TRIPOS>SUBSTRUCTURE
     1 L3C         1 TEMP              0 ****  ****    0 ROOT
