@<TRIPOS>MOLECULE
L3C
   17    17     1     0     0
SMALL
bcc


@<TRIPOS>ATOM
      1 C01          3.2560     1.5430    17.5990 ca         1 L3C      -0.135000
      2 C02          3.4330     2.8440    17.1540 ca         1 L3C      -0.112000
      3 C03          4.4400     3.6510    17.6780 ca         1 L3C      -0.117600
      4 C04          5.2630     3.1170    18.6680 ca         1 L3C      -0.112000
      5 C05          5.0870     1.8180    19.1200 ca         1 L3C      -0.135000
      6 C06          4.0790     1.0170    18.5910 ca         1 L3C      -0.149300
      7 C07          3.8970    -0.3850    19.0650 c3         1 L3C       0.134300
      8 C09          4.6370     5.0840    17.1880 c          1 L3C       0.923200
      9 O10          3.8210     5.4970    16.3420 o          1 L3C      -0.822800
     10 O11          5.5960     5.7080    17.6790 o          1 L3C      -0.822800
     11 CL08         4.9180    -1.5260    18.0890 cl         1 L3C      -0.260400
     12 H011         2.4680     0.9300    17.1770 ha         1 L3C       0.105500
     13 H021         2.7810     3.2410    16.3870 ha         1 L3C       0.146500
     14 H041         6.0480     3.7300    19.0910 ha         1 L3C       0.146500
     15 H051         5.7350     1.4240    19.8940 ha         1 L3C       0.105500
     16 H071         2.8710    -0.7270    18.9540 h1         1 L3C       0.051700
     17 H072         4.2060    -0.5120    20.1000 h1         1 L3C       0.051700
@<TRIPOS>BOND
     1     1     2 ar  
     2     1     6 ar  
     3     1    12 1   
     4     2     3 ar  
     5     2    13 1   
     6     3     4 ar  
     7     3     8 1   
     8     4     5 ar  
     9     4    14 1   
    10     5     6 ar  
    11     5    15 1   
    12     6     7 1   
    13     7    11 1   
    14     7    16 1   
    15     7    17 1   
    16     8     9 1   
    17     8    10 1   
@<TRIPOS>SUBSTRUCTURE
     1 L3C         1 TEMP              0 ****  ****    0 ROOT
