@<TRIPOS>MOLECULE
L3D
   58    62     1     0     0
SMALL
bcc


@<TRIPOS>ATOM
      1 C01          3.5960     2.7250     0.0420 c3         1 L3D      -0.149400
      2 C02          3.0600     1.3240     0.0800 ca         1 L3D       0.467600
      3 C03          1.6930     1.0530    -0.2420 ca         1 L3D      -0.114600
      4 C04          0.7790     2.1930    -0.6340 c3         1 L3D       0.026400
      5 C05          0.7790     2.4020    -2.1780 c          1 L3D       0.932600
      6 O06          1.8280     2.0640    -2.7620 o          1 L3D      -0.812800
      7 O07         -0.2230     2.9340    -2.6720 o          1 L3D      -0.812800
      8 O08         -0.5210     2.0400    -0.1460 os         1 L3D      -0.377600
      9 C09         -0.9180     2.8250     0.9710 c3         1 L3D       0.167800
     10 C10         -0.9560     4.3110     0.6060 c3         1 L3D      -0.101433
     11 C11         -2.3310     2.3490     1.2900 c3         1 L3D      -0.101433
     12 C12         -0.0150     2.5880     2.1820 c3         1 L3D      -0.101433
     13 C13          1.2670    -0.2520    -0.2060 cp         1 L3D       0.014000
     14 C14         -0.1110    -0.6300    -0.5940 cp         1 L3D      -0.075300
     15 C15         -0.4940    -0.6300    -1.9100 ca         1 L3D      -0.045000
     16 C16         -1.8060    -0.9390    -2.3110 ca         1 L3D      -0.135000
     17 C17         -2.7470    -1.2580    -1.3680 ca         1 L3D       0.119100
     18 C18         -2.3820    -1.3120     0.0010 ca         1 L3D      -0.201300
     19 C19         -1.0600    -0.9950     0.3920 ca         1 L3D       0.448600
     20 N20         -0.6800    -1.0430     1.6880 nb         1 L3D      -0.644000
     21 C21         -1.5670    -1.3960     2.5820 ca         1 L3D       0.405200
     22 C22         -2.9000    -1.7400     2.2880 ca         1 L3D      -0.270300
     23 C23         -3.3150    -1.7070     0.9840 ca         1 L3D      -0.031300
     24 C24         -4.6860    -2.0880     0.5220 c6         1 L3D      -0.070100
     25 C25         -5.0150    -1.3500    -0.7610 c6         1 L3D       0.142400
     26 O26         -4.0080    -1.5440    -1.7510 os         1 L3D      -0.323900
     27 C27          2.1900    -1.2780     0.1410 ca         1 L3D      -0.118300
     28 C28          3.5140    -0.8970     0.4500 ca         1 L3D       0.395600
     29 C29          4.4630    -1.8860     0.7960 ca         1 L3D      -0.170300
     30 C30          4.1090    -3.2080     0.8250 ca         1 L3D      -0.146000
     31 C31          2.7920    -3.5930     0.5040 ca         1 L3D      -0.156000
     32 C32          1.8550    -2.6510     0.1710 ca         1 L3D      -0.093000
     33 N33          3.9160     0.3940     0.4130 nb         1 L3D      -0.703000
     34 H1           3.1070     3.3680     0.7780 hc         1 L3D       0.051033
     35 H2           4.6620     2.7200     0.2600 hc         1 L3D       0.051033
     36 H3           3.4400     3.1760    -0.9380 hc         1 L3D       0.051033
     37 H4           1.2250     3.1190    -0.2480 h1         1 L3D       0.031700
     38 H6          -1.6000     4.4770    -0.2580 hc         1 L3D       0.033033
     39 H7          -1.3450     4.8970     1.4390 hc         1 L3D       0.033033
     40 H8           0.0320     4.7090     0.3670 hc         1 L3D       0.033033
     41 H9          -2.9830     2.4550     0.4220 hc         1 L3D       0.033033
     42 H10         -2.3350     1.3000     1.5870 hc         1 L3D       0.033033
     43 H11         -2.7550     2.9340     2.1070 hc         1 L3D       0.033033
     44 H12         -0.4070     3.1130     3.0550 hc         1 L3D       0.033033
     45 H13          0.0370     1.5250     2.4170 hc         1 L3D       0.033033
     46 H14          1.0030     2.9500     2.0220 hc         1 L3D       0.033033
     47 H15          0.2280    -0.3620    -2.6720 ha         1 L3D       0.174000
     48 H16         -2.0730    -0.9110    -3.3600 ha         1 L3D       0.146000
     49 H17         -1.2320    -1.4210     3.6140 h4         1 L3D       0.006100
     50 H18         -3.5720    -2.0270     3.0870 ha         1 L3D       0.125000
     51 H19         -4.7260    -3.1680     0.3540 hc         1 L3D       0.055200
     52 H20         -5.4360    -1.8590     1.2810 hc         1 L3D       0.055200
     53 H21         -5.9430    -1.7120    -1.1980 h1         1 L3D       0.052200
     54 H22         -5.1270    -0.2790    -0.5610 h1         1 L3D       0.052200
     55 H23          5.4710    -1.5690     1.0320 ha         1 L3D       0.132000
     56 H24          4.8410    -3.9610     1.0860 ha         1 L3D       0.113000
     57 H25          2.5220    -4.6410     0.5190 ha         1 L3D       0.113000
     58 H26          0.8510    -2.9630    -0.0840 ha         1 L3D       0.129000
@<TRIPOS>BOND
     1     1     2 1   
     2     1    34 1   
     3     1    35 1   
     4     1    36 1   
     5     2     3 ar  
     6     2    33 ar  
     7     3     4 1   
     8     3    13 ar  
     9     4     5 1   
    10     4     8 1   
    11     4    37 1   
    12     5     6 1   
    13     5     7 1   
    14     8     9 1   
    15     9    10 1   
    16     9    11 1   
    17     9    12 1   
    18    10    38 1   
    19    10    39 1   
    20    10    40 1   
    21    11    41 1   
    22    11    42 1   
    23    11    43 1   
    24    12    44 1   
    25    12    45 1   
    26    12    46 1   
    27    13    14 1   
    28    13    27 ar  
    29    14    15 ar  
    30    14    19 ar  
    31    15    16 ar  
    32    15    47 1   
    33    16    17 ar  
    34    16    48 1   
    35    17    18 ar  
    36    17    26 1   
    37    18    19 ar  
    38    18    23 ar  
    39    19    20 ar  
    40    20    21 ar  
    41    21    22 ar  
    42    21    49 1   
    43    22    23 ar  
    44    22    50 1   
    45    23    24 1   
    46    24    25 1   
    47    24    51 1   
    48    24    52 1   
    49    25    26 1   
    50    25    53 1   
    51    25    54 1   
    52    27    28 ar  
    53    27    32 ar  
    54    28    29 ar  
    55    28    33 ar  
    56    29    30 ar  
    57    29    55 1   
    58    30    31 ar  
    59    30    56 1   
    60    31    32 ar  
    61    31    57 1   
    62    32    58 1   
@<TRIPOS>SUBSTRUCTURE
     1 L3D         1 TEMP              0 ****  ****    0 ROOT
