@<TRIPOS>MOLECULE
L3D
   58    62     1     0     0
SMALL
No Charge or Current Charge


@<TRIPOS>ATOM
      1 C01          3.6390     2.7850     0.0580 c3         1 L3D      -0.149400
      2 C02          3.0420     1.3800     0.0710 ca         1 L3D       0.402300
      3 C03          1.6960     1.1020    -0.2870 ca         1 L3D      -0.049300
      4 C04          0.7710     2.2600    -0.7370 c3         1 L3D       0.049600
      5 C05          0.7140     2.3580    -2.3030 c          1 L3D       0.722000
      6 O06          1.7720     2.3110    -2.9170 o          1 L3D      -0.707500
      7 O07         -0.3690     2.4690    -2.8660 o          1 L3D      -0.707500
      8 O08         -0.5510     2.1350    -0.1220 os         1 L3D      -0.424000
      9 C09         -0.8680     2.9030     1.0670 c3         1 L3D       0.191000
     10 C10         -0.8690     4.4130     0.7110 c3         1 L3D      -0.101433
     11 C11         -2.2940     2.4530     1.4630 c3         1 L3D      -0.101433
     12 C12          0.1410     2.5700     2.1960 c3         1 L3D      -0.101433
     13 C13          1.2640    -0.2610    -0.2580 cp         1 L3D       0.014000
     14 C14         -0.1330    -0.6530    -0.6290 cp         1 L3D      -0.010000
     15 C15         -0.5070    -0.6810    -1.9930 ca         1 L3D      -0.027000
     16 C16         -1.8110    -1.0190    -2.3800 ca         1 L3D      -0.117000
     17 C17         -2.7660    -1.3330    -1.4080 ca         1 L3D       0.119100
     18 C18         -2.4080    -1.3570    -0.0430 ca         1 L3D      -0.136000
     19 C19         -1.0900    -1.0200     0.3640 ca         1 L3D       0.318000
     20 N20         -0.7380    -1.0650     1.6770 nb         1 L3D      -0.644000
     21 C21         -1.6560    -1.4270     2.5970 ca         1 L3D       0.339900
     22 C22         -2.9710    -1.7740     2.2650 ca         1 L3D      -0.187000
     23 C23         -3.3600    -1.7410     0.9200 ca         1 L3D      -0.031300
     24 C24         -4.7670    -2.1370     0.4890 c6         1 L3D      -0.070100
     25 C25         -5.1250    -1.4870    -0.8610 c6         1 L3D       0.165600
     26 O26         -4.0490    -1.6400    -1.8120 os         1 L3D      -0.347100
     27 C27          2.2120    -1.2520     0.1280 ca         1 L3D      -0.053000
     28 C28          3.5270    -0.8610     0.4830 ca         1 L3D       0.265000
     29 C29          4.4570    -1.8460     0.8700 ca         1 L3D      -0.087000
     30 C30          4.1060    -3.2040     0.9020 ca         1 L3D      -0.128000
     31 C31          2.8100    -3.5930     0.5420 ca         1 L3D      -0.138000
     32 C32          1.8690    -2.6260     0.1560 ca         1 L3D      -0.075000
     33 N33          3.9210     0.4270     0.4520 nb         1 L3D      -0.703000
     34 H1           3.1600     3.4260     0.8060 hc         1 L3D       0.051033
     35 H2           4.7130     2.7790     0.2800 hc         1 L3D       0.051033
     36 H3           3.5190     3.2570    -0.9230 hc         1 L3D       0.051033
     37 H4           1.2150     3.2120    -0.4330 h1         1 L3D       0.031700
     38 H6          -1.4520     4.5990    -0.1990 hc         1 L3D       0.033033
     39 H7          -1.3180     4.9970     1.5240 hc         1 L3D       0.033033
     40 H8           0.1450     4.8000     0.5580 hc         1 L3D       0.033033
     41 H9          -3.0040     2.6430     0.6490 hc         1 L3D       0.033033
     42 H10         -2.3190     1.3820     1.6920 hc         1 L3D       0.033033
     43 H11         -2.6410     2.9950     2.3500 hc         1 L3D       0.033033
     44 H12         -0.1900     3.0090     3.1450 hc         1 L3D       0.033033
     45 H13          0.2310     1.4880     2.3390 hc         1 L3D       0.033033
     46 H14          1.1350     2.9730     1.9790 hc         1 L3D       0.033033
     47 H15          0.2270    -0.4300    -2.7560 ha         1 L3D       0.156000
     48 H16         -2.0850    -1.0210    -3.4310 ha         1 L3D       0.128000
     49 H17         -1.3210    -1.4440     3.6330 h4         1 L3D       0.006100
     50 H18         -3.6690    -2.0680     3.0430 ha         1 L3D       0.107000
     51 H19         -4.8290    -3.2300     0.3990 hc         1 L3D       0.055200
     52 H20         -5.5030    -1.8400     1.2490 hc         1 L3D       0.055200
     53 H21         -6.0440    -1.9250    -1.2740 h1         1 L3D       0.052200
     54 H22         -5.2980    -0.4110    -0.7100 h1         1 L3D       0.052200
     55 H23          5.4660    -1.5490     1.1440 ha         1 L3D       0.114000
     56 H24          4.8380    -3.9500     1.2020 ha         1 L3D       0.095000
     57 H25          2.5320    -4.6450     0.5610 ha         1 L3D       0.095000
     58 H26          0.8730    -2.9610    -0.1210 ha         1 L3D       0.111000
@<TRIPOS>BOND
     1     1     2 1   
     2     1    34 1   
     3     1    35 1   
     4     1    36 1   
     5     2     3 ar  
     6     2    33 ar  
     7     3     4 1   
     8     3    13 ar  
     9     4     5 1   
    10     4     8 1   
    11     4    37 1   
    12     5     6 1   
    13     5     7 1   
    14     8     9 1   
    15     9    10 1   
    16     9    11 1   
    17     9    12 1   
    18    10    38 1   
    19    10    39 1   
    20    10    40 1   
    21    11    41 1   
    22    11    42 1   
    23    11    43 1   
    24    12    44 1   
    25    12    45 1   
    26    12    46 1   
    27    13    14 1   
    28    13    27 ar  
    29    14    15 ar  
    30    14    19 ar  
    31    15    16 ar  
    32    15    47 1   
    33    16    17 ar  
    34    16    48 1   
    35    17    18 ar  
    36    17    26 1   
    37    18    19 ar  
    38    18    23 ar  
    39    19    20 ar  
    40    20    21 ar  
    41    21    22 ar  
    42    21    49 1   
    43    22    23 ar  
    44    22    50 1   
    45    23    24 1   
    46    24    25 1   
    47    24    51 1   
    48    24    52 1   
    49    25    26 1   
    50    25    53 1   
    51    25    54 1   
    52    27    28 ar  
    53    27    32 ar  
    54    28    29 ar  
    55    28    33 ar  
    56    29    30 ar  
    57    29    55 1   
    58    30    31 ar  
    59    30    56 1   
    60    31    32 ar  
    61    31    57 1   
    62    32    58 1   
@<TRIPOS>SUBSTRUCTURE
     1 L3D         1 TEMP              0 ****  ****    0 ROOT
