@<TRIPOS>MOLECULE
L3E
   44    47     1     0     0
SMALL
No Charge or Current Charge


@<TRIPOS>ATOM
      1 N1           0.8960     0.1800    -0.6770 ne         1 L3E      -0.554100
      2 C2           4.7300    -0.8350     0.8160 ca         1 L3E      -0.119600
      3 N3          -2.0310     5.8760     0.2500 na         1 L3E      -0.102000
      4 C4           2.3150    -1.2400     0.6870 ca         1 L3E      -0.130500
      5 C5           2.1650    -0.1520    -0.1860 ca         1 L3E       0.075400
      6 C6           0.1910     1.1420    -0.1550 cf         1 L3E       0.478800
      7 C9          -1.7670    -1.2800    -0.7330 ca         1 L3E      -0.046500
      8 C11         -1.1080    -3.0590    -2.2740 ca         1 L3E      -0.076000
      9 C1           6.1060    -1.2010     1.3540 c          1 L3E       0.711600
     10 C10         -1.5070    -1.7340    -2.0440 ca         1 L3E       0.152000
     11 C12         -0.9560    -3.9420    -1.1960 ca         1 L3E      -0.104000
     12 C13         -1.1990    -3.5010     0.1140 ca         1 L3E      -0.070000
     13 C14         -1.6020    -2.1680     0.3690 ca         1 L3E      -0.159300
     14 C15         -1.8550    -1.7010     1.8160 c3         1 L3E       0.357300
     15 C16         -2.0760     2.2920    -0.1820 cc         1 L3E       0.292500
     16 C17         -1.7450     3.6900    -0.0100 cc         1 L3E      -0.230500
     17 C18         -0.4760     4.3120     0.0370 cc         1 L3E      -0.129000
     18 C19         -0.6480     5.6580     0.2000 cd         1 L3E      -0.211000
     19 C20         -2.7090     4.6580     0.1100 cd         1 L3E      -0.151000
     20 C21          3.2920     0.5940    -0.5650 ca         1 L3E      -0.130500
     21 C22          4.5640     0.2580    -0.0690 ca         1 L3E      -0.089000
     22 C3           3.5840    -1.5800     1.1850 ca         1 L3E      -0.089000
     23 C7          -1.2570     1.2020    -0.2720 cd         1 L3E      -0.229900
     24 C8          -2.1400     0.1310    -0.5380 cd         1 L3E       0.338500
     25 F1          -3.1230    -1.2650     1.9890 f          1 L3E      -0.111000
     26 F2          -1.6630    -2.6800     2.7300 f          1 L3E      -0.111000
     27 F3          -1.0350    -0.6870     2.1700 f          1 L3E      -0.111000
     28 N2          -3.4120     0.4910    -0.5790 nc         1 L3E      -0.357300
     29 O1           7.0680    -0.5310     1.0070 o          1 L3E      -0.718500
     30 O2           6.2030    -2.1540     2.1150 o          1 L3E      -0.718500
     31 O3          -3.3850     1.9020    -0.3240 os         1 L3E      -0.082700
     32 Cl1         -1.6690    -0.6500    -3.4280 cl         1 L3E      -0.178000
     33 H2           1.4460    -1.8250     0.9790 ha         1 L3E       0.093500
     34 H3           0.6640     1.8430     0.5360 h4         1 L3E      -0.017200
     35 H4          -0.9130    -3.3980    -3.2880 ha         1 L3E       0.131000
     36 H5          -0.6450    -4.9690    -1.3750 ha         1 L3E       0.120000
     37 H6          -1.0660    -4.2100     0.9280 ha         1 L3E       0.130000
     38 H7           0.4870     3.8270    -0.0680 ha         1 L3E       0.149000
     39 H8           0.0800     6.4600     0.2720 h4         1 L3E       0.149000
     40 H9          -3.7920     4.5850     0.1130 h4         1 L3E       0.157000
     41 H10          3.1850     1.4360    -1.2440 ha         1 L3E       0.093500
     42 H11          5.4230     0.8510    -0.3750 ha         1 L3E       0.129000
     43 H12          3.6750    -2.4280     1.8620 ha         1 L3E       0.129000
     44 H1          -2.4780     6.7820     0.3630 hn         1 L3E       0.343000
@<TRIPOS>BOND
     1     1     5 1   
     2     1     6 2   
     3     2     9 1   
     4     2    21 ar  
     5     2    22 ar  
     6     3    18 1   
     7     3    19 1   
     8     3    44 1   
     9     4     5 ar  
    10     4    22 ar  
    11     4    33 1   
    12     5    20 ar  
    13     6    23 1   
    14     6    34 1   
    15     7    10 ar  
    16     7    13 ar  
    17     7    24 1   
    18     8    10 ar  
    19     8    11 ar  
    20     8    35 1   
    21     9    29 1   
    22     9    30 1   
    23    10    32 1   
    24    11    12 ar  
    25    11    36 1   
    26    12    13 ar  
    27    12    37 1   
    28    13    14 1   
    29    14    25 1   
    30    14    26 1   
    31    14    27 1   
    32    15    16 1   
    33    15    23 2   
    34    15    31 1   
    35    16    17 1   
    36    16    19 2   
    37    17    18 2   
    38    17    38 1   
    39    18    39 1   
    40    19    40 1   
    41    20    21 ar  
    42    20    41 1   
    43    21    42 1   
    44    22    43 1   
    45    23    24 1   
    46    24    28 2   
    47    28    31 1   
@<TRIPOS>SUBSTRUCTURE
     1 L3E         1 TEMP              0 ****  ****    0 ROOT
