@<TRIPOS>MOLECULE
L3E
   44    47     1     0     0
SMALL
bcc


@<TRIPOS>ATOM
      1 N1           0.8730    -0.1200    -0.1400 ne         1 L3E      -0.554100
      2 C2           4.9620    -0.6440     0.6920 ca         1 L3E      -0.119600
      3 N3          -1.9210     5.8160     0.3300 na         1 L3E      -0.153100
      4 C4           2.6800    -1.4480     0.6780 ca         1 L3E      -0.148500
      5 C5           2.2330    -0.2450     0.1270 ca         1 L3E       0.075400
      6 C6           0.2910     1.0000     0.0130 cf         1 L3E       0.478800
      7 C9          -1.7980    -1.3350    -0.6890 ca         1 L3E      -0.046500
      8 C11         -1.0430    -3.1700    -2.0810 ca         1 L3E      -0.094000
      9 C1           6.4370    -0.8560     1.0000 c          1 L3E       0.922200
     10 C10         -1.2940    -1.8230    -1.8890 ca         1 L3E       0.060400
     11 C12         -1.2970    -4.0560    -1.0490 ca         1 L3E      -0.122000
     12 C13         -1.7910    -3.5980     0.1620 ca         1 L3E      -0.088000
     13 C14         -2.0390    -2.2440     0.3430 ca         1 L3E      -0.159300
     14 C15         -2.5660    -1.7560     1.6620 c3         1 L3E       0.721200
     15 C16         -1.8830     2.2800    -0.2800 cc         1 L3E       0.402200
     16 C17         -1.6110     3.6750    -0.0840 cc         1 L3E      -0.230500
     17 C18         -0.3560     4.3450    -0.1820 cc         1 L3E      -0.147000
     18 C19         -0.5900     5.6660     0.0800 cd         1 L3E      -0.178300
     19 C20         -2.5570     4.6340     0.2330 cd         1 L3E      -0.118300
     20 C21          3.1740     0.7470    -0.1660 ca         1 L3E      -0.148500
     21 C22          4.5150     0.5420     0.1140 ca         1 L3E      -0.107000
     22 C3           4.0210    -1.6340     0.9660 ca         1 L3E      -0.107000
     23 C7          -1.1130     1.1440    -0.2770 cd         1 L3E      -0.360500
     24 C8          -2.0530     0.1120    -0.5500 cd         1 L3E       0.403800
     25 F1          -3.8450    -1.3690     1.5780 f          1 L3E      -0.232300
     26 F2          -2.5100    -2.6990     2.6050 f          1 L3E      -0.232300
     27 F3          -1.8710    -0.7080     2.1200 f          1 L3E      -0.232300
     28 N2          -3.2520     0.5820    -0.6920 nc         1 L3E      -0.357300
     29 O1           7.2070     0.0830     0.7170 o          1 L3E      -0.823800
     30 O2           6.7500    -1.9490     1.5090 o          1 L3E      -0.823800
     31 O3          -3.1490     1.9340    -0.5310 os         1 L3E      -0.127100
     32 CL1         -0.9540    -0.7190    -3.1710 cl         1 L3E      -0.086400
     33 H2           1.9560    -2.2270     0.8820 ha         1 L3E       0.111500
     34 H3           0.8070     1.8820     0.4010 h4         1 L3E      -0.017200
     35 H4          -0.6520    -3.5220    -3.0250 ha         1 L3E       0.149000
     36 H5          -1.1060    -5.1110    -1.1880 ha         1 L3E       0.138000
     37 H6          -1.9750    -4.3070     0.9560 ha         1 L3E       0.148000
     38 H7           0.5960     3.9190    -0.4510 ha         1 L3E       0.167000
     39 H8           0.0830     6.5060     0.0960 h4         1 L3E       0.167000
     40 H9          -3.6170     4.5480     0.4070 h4         1 L3E       0.175000
     41 H10          2.8620     1.6670    -0.6460 ha         1 L3E       0.111500
     42 H11          5.2320     1.3160    -0.1260 ha         1 L3E       0.147000
     43 H12          4.3480    -2.5670     1.4060 ha         1 L3E       0.147000
     44 H1          -2.3690     6.6880     0.5590 hn         1 L3E       0.292700
@<TRIPOS>BOND
     1     1     5 1   
     2     1     6 2   
     3     2     9 1   
     4     2    21 ar  
     5     2    22 ar  
     6     3    18 1   
     7     3    19 1   
     8     3    44 1   
     9     4     5 ar  
    10     4    22 ar  
    11     4    33 1   
    12     5    20 ar  
    13     6    23 1   
    14     6    34 1   
    15     7    10 ar  
    16     7    13 ar  
    17     7    24 1   
    18     8    10 ar  
    19     8    11 ar  
    20     8    35 1   
    21     9    29 1   
    22     9    30 1   
    23    10    32 1   
    24    11    12 ar  
    25    11    36 1   
    26    12    13 ar  
    27    12    37 1   
    28    13    14 1   
    29    14    25 1   
    30    14    26 1   
    31    14    27 1   
    32    15    16 1   
    33    15    23 2   
    34    15    31 1   
    35    16    17 1   
    36    16    19 2   
    37    17    18 2   
    38    17    38 1   
    39    18    39 1   
    40    19    40 1   
    41    20    21 ar  
    42    20    41 1   
    43    21    42 1   
    44    22    43 1   
    45    23    24 1   
    46    24    28 2   
    47    28    31 1   
@<TRIPOS>SUBSTRUCTURE
     1 L3E         1 TEMP              0 ****  ****    0 ROOT
