@<TRIPOS>MOLECULE
L3F
   56    57     1     0     0
SMALL
bcc


@<TRIPOS>ATOM
      1 N1          17.7180   -24.4250    -0.0230 ns         1 L3F      -0.543900
      2 C4          16.2750   -22.5210    -0.5350 c          1 L3F       0.653100
      3 C5          14.5740   -20.7290    -0.6960 c3         1 L3F       0.106700
      4 C6          13.2410   -20.9940     0.0180 c3         1 L3F      -0.043100
      5 C7          12.8590   -22.4450    -0.0400 ca         1 L3F      -0.087300
      6 C8          13.2010   -23.3230     0.9850 ca         1 L3F      -0.121000
      7 C10         12.2430   -25.1700    -0.2250 ca         1 L3F      -0.125000
      8 C13         14.9290   -19.2460    -0.7420 c3         1 L3F       0.127400
      9 C15         17.0610   -27.8830     0.1950 c3         1 L3F       0.208700
     10 C17         15.3370   -27.8670    -1.6400 ca         1 L3F      -0.101000
     11 C20         13.4090   -28.8910     0.0730 ca         1 L3F      -0.133000
     12 C21         14.6840   -28.6070     0.5460 ca         1 L3F      -0.101000
     13 N           15.6490   -21.4400    -0.0390 ns         1 L3F      -0.572900
     14 C           19.2580   -21.9150    -0.7860 c3         1 L3F      -0.090600
     15 O           16.0600   -22.9930    -1.6390 o          1 L3F      -0.586100
     16 C1          18.5560   -22.1790     0.5420 c3         1 L3F      -0.062700
     17 C11         11.8940   -24.3030    -1.2530 ca         1 L3F      -0.119500
     18 C12         12.2010   -22.9540    -1.1590 ca         1 L3F      -0.121000
     19 C14         17.1390   -25.5420     0.4580 c          1 L3F       0.759100
     20 C16         15.6610   -28.1060    -0.3060 ca         1 L3F      -0.121300
     21 C18         14.0610   -28.1390    -2.1120 ca         1 L3F      -0.133000
     22 C19         13.0950   -28.6590    -1.2590 ca         1 L3F      -0.123000
     23 C2          19.5310   -22.7200     1.5810 c3         1 L3F      -0.090600
     24 C3          17.3340   -23.1110     0.4070 c3         1 L3F       0.044700
     25 C9          12.8970   -24.6760     0.8950 ca         1 L3F      -0.119500
     26 O1          13.9190   -18.5620    -1.4410 oh         1 L3F      -0.593800
     27 O2          16.3400   -25.5880     1.3680 o          1 L3F      -0.588000
     28 O3          17.5950   -26.6220    -0.1930 os         1 L3F      -0.430900
     29 H20         18.2700   -24.5110    -0.8630 hn         1 L3F       0.335500
     30 H1          14.5130   -21.1060    -1.7180 h1         1 L3F       0.099700
     31 H11         13.3300   -20.6640     1.0580 hc         1 L3F       0.055700
     32 H10         12.4640   -20.3830    -0.4440 hc         1 L3F       0.055700
     33 H12         13.7060   -22.9450     1.8670 ha         1 L3F       0.124000
     34 H14         12.0080   -26.2240    -0.2960 ha         1 L3F       0.131000
     35 H17         15.9070   -19.1410    -1.2300 h1         1 L3F       0.021200
     36 H18         15.0400   -18.8730     0.2860 h1         1 L3F       0.021200
     37 H21         17.1080   -28.0130     1.2780 h1         1 L3F       0.064700
     38 H22         17.7370   -28.6120    -0.2540 h1         1 L3F       0.064700
     39 H26         12.6600   -29.2860     0.7470 ha         1 L3F       0.131000
     40 H27         14.9230   -28.7840     1.5890 ha         1 L3F       0.135000
     41 H9          15.8350   -21.1820     0.9200 hn         1 L3F       0.305500
     42 H3          20.0840   -21.2200    -0.6350 hc         1 L3F       0.040033
     43 H2          19.6840   -22.8250    -1.2140 hc         1 L3F       0.040033
     44 H4          18.5950   -21.4710    -1.5290 hc         1 L3F       0.040033
     45 H5          18.1750   -21.2220     0.9110 hc         1 L3F       0.047700
     46 H15         11.3810   -24.6800    -2.1290 ha         1 L3F       0.131500
     47 H16         11.9270   -22.2830    -1.9660 ha         1 L3F       0.124000
     48 H24         13.8210   -27.9500    -3.1510 ha         1 L3F       0.131000
     49 H25         12.1020   -28.8760    -1.6300 ha         1 L3F       0.129000
     50 H6          19.0380   -22.8930     2.5390 hc         1 L3F       0.040033
     51 H8          19.9770   -23.6620     1.2590 hc         1 L3F       0.040033
     52 H7          20.3410   -22.0090     1.7450 hc         1 L3F       0.040033
     53 H           16.8860   -23.2070     1.3990 h1         1 L3F       0.088700
     54 H13         13.1730   -25.3450     1.7000 ha         1 L3F       0.131500
     55 H19         14.1160   -17.6210    -1.4150 ho         1 L3F       0.408000
     56 H23         16.0850   -27.4760    -2.3190 ha         1 L3F       0.135000
@<TRIPOS>BOND
     1     1    19 1   
     2     1    24 1   
     3     1    29 1   
     4     2    13 1   
     5     2    15 2   
     6     2    24 1   
     7     3     4 1   
     8     3     8 1   
     9     3    13 1   
    10     3    30 1   
    11     4     5 1   
    12     4    31 1   
    13     4    32 1   
    14     5     6 ar  
    15     5    18 ar  
    16     6    25 ar  
    17     6    33 1   
    18     7    17 ar  
    19     7    25 ar  
    20     7    34 1   
    21     8    26 1   
    22     8    35 1   
    23     8    36 1   
    24     9    20 1   
    25     9    28 1   
    26     9    37 1   
    27     9    38 1   
    28    10    20 ar  
    29    10    21 ar  
    30    10    56 1   
    31    11    12 ar  
    32    11    22 ar  
    33    11    39 1   
    34    12    20 ar  
    35    12    40 1   
    36    13    41 1   
    37    14    16 1   
    38    14    42 1   
    39    14    43 1   
    40    14    44 1   
    41    16    23 1   
    42    16    24 1   
    43    16    45 1   
    44    17    18 ar  
    45    17    46 1   
    46    18    47 1   
    47    19    27 2   
    48    19    28 1   
    49    21    22 ar  
    50    21    48 1   
    51    22    49 1   
    52    23    50 1   
    53    23    51 1   
    54    23    52 1   
    55    24    53 1   
    56    25    54 1   
    57    26    55 1   
@<TRIPOS>SUBSTRUCTURE
     1 L3F         1 TEMP              0 ****  ****    0 ROOT
