@<TRIPOS>MOLECULE
L3F
   56    57     1     0     0
SMALL
No Charge or Current Charge


@<TRIPOS>ATOM
      1 N1          17.3020   -24.3900    -0.4240 ns         1 L3F      -0.476900
      2 C4          16.2210   -22.1670    -0.6840 c          1 L3F       0.586100
      3 C5          14.5190   -20.3050    -0.6150 c3         1 L3F       0.106700
      4 C6          13.1270   -20.8450    -0.1860 c3         1 L3F      -0.043100
      5 C7          12.9610   -22.3390    -0.4570 ca         1 L3F      -0.087300
      6 C8          13.2090   -23.2830     0.5610 ca         1 L3F      -0.103000
      7 C10         12.7340   -25.0990    -0.9880 ca         1 L3F      -0.107000
      8 C13         14.7340   -18.8080    -0.2670 c3         1 L3F       0.150600
      9 C15         17.2570   -27.9520    -0.3190 c3         1 L3F       0.231900
     10 C17         15.0590   -28.4810    -1.4860 ca         1 L3F      -0.083000
     11 C20         13.7160   -28.7230     0.9700 ca         1 L3F      -0.115000
     12 C21         15.0860   -28.4090     0.9460 ca         1 L3F      -0.083000
     13 N           15.5810   -21.1340    -0.0270 ns         1 L3F      -0.505900
     14 C           19.3700   -22.1270    -0.5330 c3         1 L3F      -0.090600
     15 O           16.0940   -22.3510    -1.8890 o          1 L3F      -0.586100
     16 C1          18.4210   -22.4050     0.6590 c3         1 L3F      -0.062700
     17 C11         12.4780   -24.1640    -2.0050 ca         1 L3F      -0.101500
     18 C12         12.5940   -22.7880    -1.7410 ca         1 L3F      -0.103000
     19 C14         17.1830   -25.6030     0.1900 c          1 L3F       0.643100
     20 C16         15.7660   -28.2850    -0.2830 ca         1 L3F      -0.121300
     21 C18         13.6900   -28.8010    -1.4610 ca         1 L3F      -0.115000
     22 C19         13.0180   -28.9210    -0.2330 ca         1 L3F      -0.105000
     23 C2          19.1460   -23.1950     1.7740 c3         1 L3F      -0.090600
     24 C3          17.0820   -23.0820     0.2320 c3         1 L3F       0.044700
     25 C9          13.1000   -24.6590     0.2950 ca         1 L3F      -0.101500
     26 O1          13.7870   -17.9740    -0.9520 oh         1 L3F      -0.656000
     27 O2          16.9220   -25.7680     1.3720 o          1 L3F      -0.539000
     28 O3          17.4290   -26.5820    -0.7240 os         1 L3F      -0.454100
     29 H20         17.4910   -24.4130    -1.4180 hn         1 L3F       0.335500
     30 H1          14.5820   -20.3880    -1.7090 h1         1 L3F       0.099700
     31 H11         12.9790   -20.6400     0.8810 hc         1 L3F       0.055700
     32 H10         12.3450   -20.2840    -0.7120 hc         1 L3F       0.055700
     33 H12         13.5000   -22.9510     1.5550 ha         1 L3F       0.106000
     34 H14         12.6480   -26.1620    -1.1940 ha         1 L3F       0.113000
     35 H17         15.7550   -18.5220    -0.5520 h1         1 L3F       0.021200
     36 H18         14.6430   -18.6730     0.8190 h1         1 L3F       0.021200
     37 H21         17.7220   -28.1430     0.6580 h1         1 L3F       0.064700
     38 H22         17.7440   -28.6180    -1.0430 h1         1 L3F       0.064700
     39 H26         13.1970   -28.8150     1.9210 ha         1 L3F       0.113000
     40 H27         15.6180   -28.2590     1.8830 ha         1 L3F       0.117000
     41 H9          15.7540   -21.0500     0.9670 hn         1 L3F       0.305500
     42 H3          20.2670   -21.5930    -0.1940 hc         1 L3F       0.040033
     43 H2          19.6920   -23.0610    -1.0090 hc         1 L3F       0.040033
     44 H4          18.8800   -21.5050    -1.2910 hc         1 L3F       0.040033
     45 H5          18.1640   -21.4300     1.0930 hc         1 L3F       0.047700
     46 H15         12.1970   -24.5050    -2.9980 ha         1 L3F       0.113500
     47 H16         12.4070   -22.0710    -2.5370 ha         1 L3F       0.106000
     48 H24         13.1510   -28.9520    -2.3930 ha         1 L3F       0.113000
     49 H25         11.9580   -29.1660    -0.2140 ha         1 L3F       0.111000
     50 H6          18.4780   -23.3680     2.6260 hc         1 L3F       0.040033
     51 H8          19.4950   -24.1680     1.4070 hc         1 L3F       0.040033
     52 H7          20.0180   -22.6380     2.1380 hc         1 L3F       0.040033
     53 H           16.4790   -23.2470     1.1340 h1         1 L3F       0.088700
     54 H13         13.3030   -25.3840     1.0800 ha         1 L3F       0.113500
     55 H19         13.9820   -17.0450    -0.6940 ho         1 L3F       0.447000
     56 H23         15.5720   -28.3860    -2.4410 ha         1 L3F       0.117000
@<TRIPOS>BOND
     1     1    19 1   
     2     1    24 1   
     3     1    29 1   
     4     2    13 1   
     5     2    15 2   
     6     2    24 1   
     7     3     4 1   
     8     3     8 1   
     9     3    13 1   
    10     3    30 1   
    11     4     5 1   
    12     4    31 1   
    13     4    32 1   
    14     5     6 ar  
    15     5    18 ar  
    16     6    25 ar  
    17     6    33 1   
    18     7    17 ar  
    19     7    25 ar  
    20     7    34 1   
    21     8    26 1   
    22     8    35 1   
    23     8    36 1   
    24     9    20 1   
    25     9    28 1   
    26     9    37 1   
    27     9    38 1   
    28    10    20 ar  
    29    10    21 ar  
    30    10    56 1   
    31    11    12 ar  
    32    11    22 ar  
    33    11    39 1   
    34    12    20 ar  
    35    12    40 1   
    36    13    41 1   
    37    14    16 1   
    38    14    42 1   
    39    14    43 1   
    40    14    44 1   
    41    16    23 1   
    42    16    24 1   
    43    16    45 1   
    44    17    18 ar  
    45    17    46 1   
    46    18    47 1   
    47    19    27 2   
    48    19    28 1   
    49    21    22 ar  
    50    21    48 1   
    51    22    49 1   
    52    23    50 1   
    53    23    51 1   
    54    23    52 1   
    55    24    53 1   
    56    25    54 1   
    57    26    55 1   
@<TRIPOS>SUBSTRUCTURE
     1 L3F         1 TEMP              0 ****  ****    0 ROOT
