@<TRIPOS>MOLECULE
L3G
   79    85     1     0     0
SMALL
abcg2


@<TRIPOS>ATOM
      1 C1           3.1510    63.3880    12.5860 cc         1 L3G       0.437500
      2 C2           4.0650    64.1690    11.8110 ca         1 L3G      -0.379900
      3 C3           1.9590    63.8050    13.3340 ca         1 L3G      -0.095900
      4 N1           3.5120    62.1130    12.5510 nd         1 L3G      -0.511100
      5 C4           4.9920    63.2370    11.3070 ca         1 L3G       0.163500
      6 C5           4.3390    65.5270    11.5080 ca         1 L3G       0.452900
      7 C6           1.0690    64.7330    12.7750 ca         1 L3G      -0.169000
      8 C7           1.6800    63.2760    14.5910 ca         1 L3G      -0.081000
      9 N2           4.6250    62.0220    11.7750 na         1 L3G      -0.028100
     10 N3           6.0460    63.5180    10.5210 nb         1 L3G      -0.235000
     11 N4           5.3840    65.8150    10.7110 nb         1 L3G      -0.312000
     12 N5           3.6160    66.5580    11.9730 nv         1 L3G      -1.075900
     13 C8          -0.0610    65.1320    13.4700 ca         1 L3G       0.080100
     14 C9           0.5430    63.6650    15.2920 ca         1 L3G      -0.112000
     15 C11          6.1530    64.8140    10.2650 ca         1 L3G       0.193900
     16 C12         -0.3370    64.5980    14.7500 ca         1 L3G      -0.034000
     17 O1          -0.9710    66.0280    13.0050 os         1 L3G      -0.373100
     18 C13          7.4500    54.6750    11.0590 c6         1 L3G       0.154100
     19 C14          5.3640    54.0880    11.9970 c6         1 L3G       0.154100
     20 N6          -1.4920    65.0730    15.3760 ns         1 L3G      -0.131000
     21 C15         -0.7370    66.6460    11.7390 c3         1 L3G       0.155900
     22 C16          7.0560    56.1420    10.9320 c6         1 L3G      -0.125400
     23 C17          4.8480    55.5200    11.9190 c6         1 L3G      -0.125400
     24 C18         -2.0370    64.7080    16.5730 c          1 L3G       0.639300
     25 C19          6.0150    56.5060    12.0030 c6         1 L3G       0.192500
     26 C20         -3.3250    65.3710    16.8600 cc         1 L3G      -0.137300
     27 O2          -1.5270    63.8900    17.3360 o          1 L3G      -0.593100
     28 N7           5.5590    57.9010    12.0040 n3         1 L3G      -0.735600
     29 N8          -3.7910    65.5620    18.1540 na         1 L3G      -0.063700
     30 C21         -4.2790    65.8020    15.9600 cd         1 L3G      -0.194200
     31 C22          6.5540    58.8300    12.5300 c6         1 L3G       0.175800
     32 C23          5.0240    58.3850    10.7330 c6         1 L3G       0.175800
     33 C24         -5.0480    66.1130    18.0840 ca         1 L3G      -0.033200
     34 C25         -3.0870    65.3150    19.4030 c3         1 L3G       0.066900
     35 C26         -5.3890    66.2750    16.7130 ca         1 L3G      -0.110800
     36 C27          5.9260    60.1930    12.8040 c6         1 L3G      -0.088400
     37 C28          4.3200    59.7240    10.9260 c6         1 L3G      -0.088400
     38 C29         -5.9220    66.4890    19.1080 ca         1 L3G      -0.128000
     39 C30         -6.6380    66.8180    16.3730 ca         1 L3G      -0.054000
     40 C10          5.2820    60.7420    11.5330 c6         1 L3G       0.112300
     41 C31         -7.1450    67.0230    18.7410 ca         1 L3G      -0.084000
     42 C32         -7.5020    67.1860    17.3870 ca         1 L3G      -0.142000
     43 O3           6.3160    53.8130    10.9690 os         1 L3G      -0.459000
     44 H6           1.2500    65.1120    11.7800 ha         1 L3G       0.126000
     45 H7           2.3610    62.5630    15.0350 ha         1 L3G       0.133000
     46 H5N1         3.9340    67.4940    11.7830 hn         1 L3G       0.503500
     47 H5N2         2.8950    66.4250    12.6620 hn         1 L3G       0.503500
     48 H9           0.3410    63.2600    16.2680 ha         1 L3G       0.155000
     49 H11          6.9750    65.1100     9.6210 h5         1 L3G       0.047100
     50 H132         8.1250    54.3760    10.2570 h1         1 L3G       0.044950
     51 H141         4.5540    53.3700    11.8640 h1         1 L3G       0.044950
     52 H142         5.8280    53.9060    12.9770 h1         1 L3G       0.044950
     53 HA          -1.9720    65.7970    14.8600 hn         1 L3G       0.176000
     54 H151        -0.7090    65.9000    10.9420 h1         1 L3G       0.045033
     55 H152         0.2010    67.2060    11.7510 h1         1 L3G       0.045033
     56 H153        -1.5720    67.3220    11.5800 h1         1 L3G       0.045033
     57 H161         6.6430    56.3120     9.9340 hc         1 L3G       0.054950
     58 H162         7.9510    56.7610    11.0310 hc         1 L3G       0.054950
     59 H171         4.1450    55.7030    12.7360 hc         1 L3G       0.054950
     60 H172         4.3060    55.6440    10.9790 hc         1 L3G       0.054950
     61 H19          6.4870    56.3560    12.9800 h1         1 L3G       0.051700
     62 H21         -4.2100    65.7430    14.8850 ha         1 L3G       0.207000
     63 H221         7.4010    58.9590    11.8340 h1         1 L3G       0.034950
     64 H222         6.9570    58.4180    13.4560 h1         1 L3G       0.034950
     65 H231         4.3130    57.6590    10.3400 h1         1 L3G       0.034950
     66 H232         5.8180    58.5060     9.9780 h1         1 L3G       0.034950
     67 H251        -3.3630    64.3460    19.8230 h1         1 L3G       0.057700
     68 H252        -3.3480    66.0980    20.1130 h1         1 L3G       0.057700
     69 H253        -2.0170    65.3310    19.2320 h1         1 L3G       0.057700
     70 H271         6.6900    60.8870    13.1620 hc         1 L3G       0.063950
     71 H272         5.1650    60.0960    13.5810 hc         1 L3G       0.063950
     72 H281         3.4650    59.5950    11.5920 hc         1 L3G       0.063950
     73 H282         3.9490    60.0920     9.9660 hc         1 L3G       0.063950
     74 H29         -5.6620    66.3630    20.1510 ha         1 L3G       0.117000
     75 H30         -6.9150    66.9460    15.3340 ha         1 L3G       0.115000
     76 H10          6.0650    60.9690    10.8070 h1         1 L3G       0.080700
     77 H31         -7.8450    67.3190    19.5120 ha         1 L3G       0.112000
     78 H32         -8.4700    67.6070    17.1440 ha         1 L3G       0.113000
     79 H131         7.9590    54.5060    12.0190 h1         1 L3G       0.044950
@<TRIPOS>BOND
     1     1     2 1   
     2     1     3 1   
     3     1     4 2   
     4     2     5 ar  
     5     2     6 ar  
     6     3     7 ar  
     7     3     8 ar  
     8     4     9 1   
     9     5     9 1   
    10     5    10 ar  
    11     6    11 ar  
    12     6    12 1   
    13     7    13 ar  
    14     7    44 1   
    15     8    14 ar  
    16     8    45 1   
    17     9    40 1   
    18    10    15 ar  
    19    11    15 ar  
    20    12    46 1   
    21    12    47 1   
    22    13    16 ar  
    23    13    17 1   
    24    14    16 ar  
    25    14    48 1   
    26    15    49 1   
    27    16    20 1   
    28    17    21 1   
    29    18    22 1   
    30    18    43 1   
    31    18    50 1   
    32    18    79 1   
    33    19    23 1   
    34    19    43 1   
    35    19    51 1   
    36    19    52 1   
    37    20    24 1   
    38    20    53 1   
    39    21    54 1   
    40    21    55 1   
    41    21    56 1   
    42    22    25 1   
    43    22    57 1   
    44    22    58 1   
    45    23    25 1   
    46    23    59 1   
    47    23    60 1   
    48    24    26 1   
    49    24    27 2   
    50    25    28 1   
    51    25    61 1   
    52    26    29 1   
    53    26    30 2   
    54    28    31 1   
    55    28    32 1   
    56    29    33 1   
    57    29    34 1   
    58    30    35 1   
    59    30    62 1   
    60    31    36 1   
    61    31    63 1   
    62    31    64 1   
    63    32    37 1   
    64    32    65 1   
    65    32    66 1   
    66    33    35 ar  
    67    33    38 ar  
    68    34    67 1   
    69    34    68 1   
    70    34    69 1   
    71    35    39 ar  
    72    36    40 1   
    73    36    70 1   
    74    36    71 1   
    75    37    40 1   
    76    37    72 1   
    77    37    73 1   
    78    38    41 ar  
    79    38    74 1   
    80    39    42 ar  
    81    39    75 1   
    82    40    76 1   
    83    41    42 ar  
    84    41    77 1   
    85    42    78 1   
@<TRIPOS>SUBSTRUCTURE
     1 L3G         1 TEMP              0 ****  ****    0 ROOT
