@<TRIPOS>MOLECULE
L3G
   79    85     1     0     0
SMALL
No Charge or Current Charge


@<TRIPOS>ATOM
      1 C1           3.0080    63.1560    12.7340 cc         1 L3G       0.437500
      2 C2           3.8840    63.9180    11.8750 ca         1 L3G      -0.379900
      3 C3           1.8730    63.6890    13.4980 ca         1 L3G      -0.095900
      4 N1           3.3480    61.8620    12.7690 nd         1 L3G      -0.511100
      5 C4           4.7620    63.0240    11.3300 ca         1 L3G       0.163500
      6 C5           4.0430    65.2750    11.6080 ca         1 L3G       0.452900
      7 C6           0.8970    64.4960    12.8770 ca         1 L3G      -0.169000
      8 C7           1.6840    63.3060    14.8390 ca         1 L3G      -0.081000
      9 N2           4.4150    61.8010    11.8760 na         1 L3G      -0.028100
     10 N3           5.7470    63.4120    10.4970 nb         1 L3G      -0.235000
     11 N4           5.0090    65.7000    10.7820 nb         1 L3G      -0.312000
     12 N5           3.2980    66.2460    12.1750 nv         1 L3G      -1.075900
     13 C8          -0.2180    64.9660    13.6050 ca         1 L3G       0.080100
     14 C9           0.5770    63.7690    15.5700 ca         1 L3G      -0.112000
     15 C11          5.8100    64.7430    10.2530 ca         1 L3G       0.193900
     16 C12         -0.3800    64.6100    14.9610 ca         1 L3G      -0.034000
     17 O1          -1.1820    65.7740    13.0250 os         1 L3G      -0.373100
     18 C13          8.0790    54.8510    10.6530 c6         1 L3G       0.154100
     19 C14          6.0660    53.8250    11.5230 c6         1 L3G       0.154100
     20 N6          -1.5250    65.1150    15.6410 ns         1 L3G      -0.131000
     21 C15         -1.1060    66.2040    11.6520 c3         1 L3G       0.155900
     22 C16          7.4530    56.2640    10.6980 c6         1 L3G      -0.125400
     23 C17          5.3350    55.1840    11.6000 c6         1 L3G      -0.125400
     24 C18         -1.9770    64.9990    16.9480 c          1 L3G       0.639300
     25 C19          6.3620    56.3300    11.8060 c6         1 L3G       0.192500
     26 C20         -3.2660    65.7140    17.1940 cc         1 L3G      -0.137300
     27 O2          -1.3840    64.3740    17.8210 o          1 L3G      -0.593100
     28 N7           5.7040    57.6690    11.9500 n3         1 L3G      -0.735600
     29 N8          -4.0350    65.8390    18.3790 na         1 L3G      -0.063700
     30 C21         -4.0030    66.4290    16.2450 cd         1 L3G      -0.194200
     31 C22          6.6390    58.7000    12.4880 c6         1 L3G       0.175800
     32 C23          4.9920    58.1510    10.7260 c6         1 L3G       0.175800
     33 C24         -5.1910    66.5790    18.1400 ca         1 L3G      -0.033200
     34 C25         -3.7280    65.2960    19.7150 c3         1 L3G       0.066900
     35 C26         -5.2020    66.9680    16.8290 ca         1 L3G      -0.110800
     36 C27          5.8940    60.0120    12.8210 c6         1 L3G      -0.088400
     37 C28          4.2080    59.4510    11.0130 c6         1 L3G      -0.088400
     38 C29         -6.2420    66.9270    19.0060 ca         1 L3G      -0.128000
     39 C30         -6.2370    67.7320    16.2760 ca         1 L3G      -0.054000
     40 C10          5.1500    60.5440    11.5740 c6         1 L3G       0.112300
     41 C31         -7.3040    67.6980    18.4840 ca         1 L3G      -0.084000
     42 C32         -7.3010    68.0990    17.1260 ca         1 L3G      -0.142000
     43 O3           7.0470    53.8590    10.4650 os         1 L3G      -0.459000
     44 H6           1.0170    64.7360    11.8240 ha         1 L3G       0.126000
     45 H7           2.4070    62.6520    15.3220 ha         1 L3G       0.133000
     46 H5N1         3.6360    67.2030    12.1190 hn         1 L3G       0.503500
     47 H5N2         2.7030    66.0080    12.9620 hn         1 L3G       0.503500
     48 H9           0.4810    63.4550    16.6040 ha         1 L3G       0.155000
     49 H11          6.5960    65.0800     9.5800 h5         1 L3G       0.047100
     50 H132         8.7960    54.7840     9.8230 h1         1 L3G       0.044950
     51 H141         5.3440    53.0210    11.3180 h1         1 L3G       0.044950
     52 H142         6.5650    53.6020    12.4780 h1         1 L3G       0.044950
     53 HA          -2.1240    65.6700    15.0460 hn         1 L3G       0.176000
     54 H151        -1.1160    65.3430    10.9720 h1         1 L3G       0.045033
     55 H152        -0.1920    66.7840    11.4740 h1         1 L3G       0.045033
     56 H153        -1.9650    66.8410    11.4060 h1         1 L3G       0.045033
     57 H161         7.0260    56.4950     9.7140 hc         1 L3G       0.054950
     58 H162         8.2460    57.0000    10.8840 hc         1 L3G       0.054950
     59 H171         4.6120    55.1720    12.4260 hc         1 L3G       0.054950
     60 H172         4.7620    55.3240    10.6750 hc         1 L3G       0.054950
     61 H19          6.8690    56.1080    12.7580 h1         1 L3G       0.051700
     62 H21         -3.7310    66.5630    15.2000 ha         1 L3G       0.207000
     63 H221         7.4320    58.9230    11.7590 h1         1 L3G       0.034950
     64 H222         7.1300    58.3340    13.4010 h1         1 L3G       0.034950
     65 H231         4.2770    57.4020    10.3590 h1         1 L3G       0.034950
     66 H232         5.7070    58.3450     9.9130 h1         1 L3G       0.034950
     67 H251        -4.1830    64.3040    19.8220 h1         1 L3G       0.057700
     68 H252        -4.1180    65.9620    20.4940 h1         1 L3G       0.057700
     69 H253        -2.6430    65.2140    19.8500 h1         1 L3G       0.057700
     70 H271         6.6100    60.7620    13.1830 hc         1 L3G       0.063950
     71 H272         5.1840    59.8290    13.6390 hc         1 L3G       0.063950
     72 H281         3.4040    59.2370    11.7290 hc         1 L3G       0.063950
     73 H282         3.7270    59.8050    10.0920 hc         1 L3G       0.063950
     74 H29         -6.2480    66.6160    20.0480 ha         1 L3G       0.117000
     75 H30         -6.2230    68.0280    15.2300 ha         1 L3G       0.115000
     76 H10          5.9020    60.7640    10.8030 h1         1 L3G       0.080700
     77 H31         -8.1310    67.9840    19.1310 ha         1 L3G       0.112000
     78 H32         -8.1250    68.6920    16.7350 ha         1 L3G       0.113000
     79 H131         8.6190    54.6410    11.5890 h1         1 L3G       0.044950
@<TRIPOS>BOND
     1     1     2 1   
     2     1     3 1   
     3     1     4 2   
     4     2     5 ar  
     5     2     6 ar  
     6     3     7 ar  
     7     3     8 ar  
     8     4     9 1   
     9     5     9 1   
    10     5    10 ar  
    11     6    11 ar  
    12     6    12 1   
    13     7    13 ar  
    14     7    44 1   
    15     8    14 ar  
    16     8    45 1   
    17     9    40 1   
    18    10    15 ar  
    19    11    15 ar  
    20    12    46 1   
    21    12    47 1   
    22    13    16 ar  
    23    13    17 1   
    24    14    16 ar  
    25    14    48 1   
    26    15    49 1   
    27    16    20 1   
    28    17    21 1   
    29    18    22 1   
    30    18    43 1   
    31    18    50 1   
    32    18    79 1   
    33    19    23 1   
    34    19    43 1   
    35    19    51 1   
    36    19    52 1   
    37    20    24 1   
    38    20    53 1   
    39    21    54 1   
    40    21    55 1   
    41    21    56 1   
    42    22    25 1   
    43    22    57 1   
    44    22    58 1   
    45    23    25 1   
    46    23    59 1   
    47    23    60 1   
    48    24    26 1   
    49    24    27 2   
    50    25    28 1   
    51    25    61 1   
    52    26    29 1   
    53    26    30 2   
    54    28    31 1   
    55    28    32 1   
    56    29    33 1   
    57    29    34 1   
    58    30    35 1   
    59    30    62 1   
    60    31    36 1   
    61    31    63 1   
    62    31    64 1   
    63    32    37 1   
    64    32    65 1   
    65    32    66 1   
    66    33    35 ar  
    67    33    38 ar  
    68    34    67 1   
    69    34    68 1   
    70    34    69 1   
    71    35    39 ar  
    72    36    40 1   
    73    36    70 1   
    74    36    71 1   
    75    37    40 1   
    76    37    72 1   
    77    37    73 1   
    78    38    41 ar  
    79    38    74 1   
    80    39    42 ar  
    81    39    75 1   
    82    40    76 1   
    83    41    42 ar  
    84    41    77 1   
    85    42    78 1   
@<TRIPOS>SUBSTRUCTURE
     1 L3G         1 TEMP              0 ****  ****    0 ROOT
