@<TRIPOS>MOLECULE
L3H
   50    53     1     0     0
SMALL
No Charge or Current Charge


@<TRIPOS>ATOM
      1 C02        136.9140   112.9950    39.9520 c          1 L3H       0.635100
      2 C04        139.0820   113.6700    41.1410 ca         1 L3H      -0.039000
      3 C05        138.6880   114.9200    41.6690 ca         1 L3H      -0.138500
      4 C06        139.5980   115.6990    42.4050 ca         1 L3H      -0.079000
      5 C07        140.9060   115.2390    42.6230 ca         1 L3H      -0.112000
      6 C08        141.3060   113.9970    42.1050 ca         1 L3H      -0.079000
      7 C09        140.3960   113.2180    41.3690 ca         1 L3H      -0.138500
      8 C11        135.1740   111.7330    38.7860 c6         1 L3H       0.176300
      9 C12        135.0620   110.4370    37.9480 c6         1 L3H      -0.089400
     10 C13        135.2540   109.1700    38.8240 c6         1 L3H      -0.101400
     11 C14        134.2900   109.1620    40.0330 c6         1 L3H       0.096600
     12 C16        134.1630   111.6760    39.9550 c6         1 L3H       0.065600
     13 C17        133.7680   110.4050    42.2580 c5         1 L3H       0.112300
     14 C18        134.2730   111.6720    43.0600 c5         1 L3H      -0.046100
     15 C19        133.1870   112.6740    42.7640 ca         1 L3H      -0.120300
     16 C20        132.0640   112.0880    42.2140 ca         1 L3H      -0.120300
     17 C21        132.2110   110.5970    42.0540 c5         1 L3H      -0.046100
     18 C22        130.9480   112.8620    41.8570 ca         1 L3H      -0.077500
     19 C23        130.9900   114.2540    42.0670 ca         1 L3H      -0.086500
     20 C24        132.1390   114.8530    42.6270 ca         1 L3H      -0.086500
     21 C25        133.2480   114.0600    42.9790 ca         1 L3H      -0.077500
     22 N03        138.2140   112.8300    40.3910 ns         1 L3H      -0.125000
     23 N15        134.4410   110.4490    40.8610 nx         1 L3H      -0.660000
     24 O01        136.2060   113.9780    40.1160 o          1 L3H      -0.508000
     25 O10        136.5180   111.8580    39.3020 os         1 L3H      -0.492100
     26 H1         137.6830   115.3040    41.5240 ha         1 L3H       0.125000
     27 H2         139.2870   116.6610    42.8090 ha         1 L3H       0.125000
     28 H3         141.6090   115.8430    43.1930 ha         1 L3H       0.129000
     29 H4         142.3190   113.6380    42.2730 ha         1 L3H       0.125000
     30 H5         140.7190   112.2560    40.9730 ha         1 L3H       0.125000
     31 H6         134.9510   112.6010    38.1450 h1         1 L3H       0.115700
     32 H7         134.0770   110.4040    37.4620 hc         1 L3H       0.086700
     33 H8         135.8040   110.4530    37.1390 hc         1 L3H       0.086700
     34 H9         135.0920   108.2670    38.2190 hc         1 L3H       0.087200
     35 H10        136.2910   109.1170    39.1830 hc         1 L3H       0.087200
     36 H11        133.2470   109.0970    39.7060 hx         1 L3H       0.093700
     37 H12        134.4910   108.3090    40.6890 hx         1 L3H       0.093700
     38 H13        134.2330   112.5820    40.5640 hx         1 L3H       0.118700
     39 H14        133.1340   111.6030    39.5870 hx         1 L3H       0.118700
     40 H15        134.0290   109.4590    42.7410 hx         1 L3H       0.094700
     41 H16        134.3220   111.4570    44.1330 hc         1 L3H       0.082700
     42 H17        135.2700   112.0070    42.7520 hc         1 L3H       0.082700
     43 H18        131.8560   110.2260    41.0870 hc         1 L3H       0.082700
     44 H19        131.6500   110.0640    42.8290 hc         1 L3H       0.082700
     45 H20        130.0670   112.3950    41.4230 ha         1 L3H       0.129500
     46 H21        130.1340   114.8690    41.7960 ha         1 L3H       0.135500
     47 H22        132.1680   115.9280    42.7860 ha         1 L3H       0.135500
     48 H23        134.1390   114.5150    43.4070 ha         1 L3H       0.129500
     49 H24        138.6170   111.9390    40.1340 hn         1 L3H       0.166000
     50 H25        135.4620   110.5020    41.0730 hn         1 L3H       0.500000
@<TRIPOS>BOND
     1     1    22 1   
     2     1    24 2   
     3     1    25 1   
     4     2     3 ar  
     5     2     7 ar  
     6     2    22 1   
     7     3     4 ar  
     8     3    26 1   
     9     4     5 ar  
    10     4    27 1   
    11     5     6 ar  
    12     5    28 1   
    13     6     7 ar  
    14     6    29 1   
    15     7    30 1   
    16     8     9 1   
    17     8    12 1   
    18     8    25 1   
    19     8    31 1   
    20     9    10 1   
    21     9    32 1   
    22     9    33 1   
    23    10    11 1   
    24    10    34 1   
    25    10    35 1   
    26    11    23 1   
    27    11    36 1   
    28    11    37 1   
    29    12    23 1   
    30    12    38 1   
    31    12    39 1   
    32    13    14 1   
    33    13    17 1   
    34    13    23 1   
    35    13    40 1   
    36    14    15 1   
    37    14    41 1   
    38    14    42 1   
    39    15    16 ar  
    40    15    21 ar  
    41    16    17 1   
    42    16    18 ar  
    43    17    43 1   
    44    17    44 1   
    45    18    19 ar  
    46    18    45 1   
    47    19    20 ar  
    48    19    46 1   
    49    20    21 ar  
    50    20    47 1   
    51    21    48 1   
    52    22    49 1   
    53    23    50 1   
@<TRIPOS>SUBSTRUCTURE
     1 L3H         1 TEMP              0 ****  ****    0 ROOT
