@<TRIPOS>MOLECULE
L3H
   50    53     1     0     0
SMALL
bcc


@<TRIPOS>ATOM
      1 C02        137.1910   112.8870    40.1760 c          1 L3H       0.751100
      2 C04        139.3530   113.6420    41.1020 ca         1 L3H       0.053600
      3 C05        138.9670   114.8790    41.6200 ca         1 L3H      -0.156500
      4 C06        139.9350   115.7540    42.0960 ca         1 L3H      -0.097000
      5 C07        141.2810   115.4200    42.0760 ca         1 L3H      -0.130000
      6 C08        141.6600   114.1830    41.5700 ca         1 L3H      -0.097000
      7 C09        140.7070   113.3030    41.0850 ca         1 L3H      -0.156500
      8 C11        135.4080   111.7420    39.0810 c6         1 L3H       0.153100
      9 C12        135.3420   110.5190    38.1850 c6         1 L3H      -0.089400
     10 C13        135.3450   109.2350    39.0030 c6         1 L3H      -0.101400
     11 C14        134.2540   109.2490    40.0540 c6         1 L3H       0.124800
     12 C16        134.3190   111.7120    40.1410 c6         1 L3H       0.093800
     13 C17        133.4450   110.4010    42.1160 c5         1 L3H       0.140500
     14 C18        133.7800   111.5050    43.1310 c5         1 L3H      -0.046100
     15 C19        132.7620   112.5750    42.8590 ca         1 L3H      -0.120300
     16 C20        131.7390   112.0810    42.0560 ca         1 L3H      -0.120300
     17 C21        131.9800   110.6370    41.7180 c5         1 L3H      -0.046100
     18 C22        130.6880   112.8970    41.6710 ca         1 L3H      -0.095500
     19 C23        130.6730   114.2200    42.1010 ca         1 L3H      -0.104500
     20 C24        131.6950   114.7130    42.9050 ca         1 L3H      -0.104500
     21 C25        132.7500   113.8920    43.2900 ca         1 L3H      -0.095500
     22 N03        138.4580   112.6870    40.6060 ns         1 L3H      -0.451100
     23 N15        134.3880   110.4520    40.9390 nx         1 L3H      -0.689400
     24 O01        136.5690   113.9220    40.2090 o          1 L3H      -0.557000
     25 O10        136.7000   111.7310    39.6980 os         1 L3H      -0.468900
     26 H1         137.9290   115.1680    41.6630 ha         1 L3H       0.143000
     27 H2         139.6210   116.7100    42.4930 ha         1 L3H       0.143000
     28 H3         142.0240   116.1110    42.4500 ha         1 L3H       0.147000
     29 H4         142.7040   113.8990    41.5440 ha         1 L3H       0.143000
     30 H5         141.0160   112.3440    40.6850 ha         1 L3H       0.143000
     31 H6         135.2760   112.6520    38.4920 h1         1 L3H       0.115700
     32 H7         134.4230   110.5830    37.5970 hc         1 L3H       0.086700
     33 H8         136.1720   110.5340    37.4780 hc         1 L3H       0.086700
     34 H9         135.1680   108.3750    38.3560 hc         1 L3H       0.087200
     35 H10        136.3170   109.0720    39.4750 hc         1 L3H       0.087200
     36 H11        133.2670   109.2930    39.5960 hx         1 L3H       0.093700
     37 H12        134.3020   108.3730    40.6980 hx         1 L3H       0.093700
     38 H13        134.4010   112.5610    40.8150 hx         1 L3H       0.118700
     39 H14        133.3450   111.7480    39.6570 hx         1 L3H       0.118700
     40 H15        133.6020   109.4100    42.5340 hx         1 L3H       0.094700
     41 H16        133.6600   111.1000    44.1390 hc         1 L3H       0.082700
     42 H17        134.8150   111.8520    43.0700 hc         1 L3H       0.082700
     43 H18        131.7510   110.3870    40.6820 hc         1 L3H       0.082700
     44 H19        131.3520   109.9840    42.3300 hc         1 L3H       0.082700
     45 H20        129.8930   112.5190    41.0390 ha         1 L3H       0.147500
     46 H21        129.8630   114.8730    41.8010 ha         1 L3H       0.153500
     47 H22        131.6740   115.7470    43.2260 ha         1 L3H       0.153500
     48 H23        133.5500   114.2820    43.9060 ha         1 L3H       0.147500
     49 H24        138.8520   111.7760    40.4190 hn         1 L3H       0.332500
     50 H25        135.3250   110.4000    41.3500 hn         1 L3H       0.444800
@<TRIPOS>BOND
     1     1    22 1   
     2     1    24 2   
     3     1    25 1   
     4     2     3 ar  
     5     2     7 ar  
     6     2    22 1   
     7     3     4 ar  
     8     3    26 1   
     9     4     5 ar  
    10     4    27 1   
    11     5     6 ar  
    12     5    28 1   
    13     6     7 ar  
    14     6    29 1   
    15     7    30 1   
    16     8     9 1   
    17     8    12 1   
    18     8    25 1   
    19     8    31 1   
    20     9    10 1   
    21     9    32 1   
    22     9    33 1   
    23    10    11 1   
    24    10    34 1   
    25    10    35 1   
    26    11    23 1   
    27    11    36 1   
    28    11    37 1   
    29    12    23 1   
    30    12    38 1   
    31    12    39 1   
    32    13    14 1   
    33    13    17 1   
    34    13    23 1   
    35    13    40 1   
    36    14    15 1   
    37    14    41 1   
    38    14    42 1   
    39    15    16 ar  
    40    15    21 ar  
    41    16    17 1   
    42    16    18 ar  
    43    17    43 1   
    44    17    44 1   
    45    18    19 ar  
    46    18    45 1   
    47    19    20 ar  
    48    19    46 1   
    49    20    21 ar  
    50    20    47 1   
    51    21    48 1   
    52    22    49 1   
    53    23    50 1   
@<TRIPOS>SUBSTRUCTURE
     1 L3H         1 TEMP              0 ****  ****    0 ROOT
