@<TRIPOS>MOLECULE
L3I
   37    38     1     0     0
SMALL
abcg2


@<TRIPOS>ATOM
      1 N1           8.1420     0.0190    21.0780 ns         1 L3I      -0.152000
      2 C4           7.9920     1.2790    18.9780 ca         1 L3I       0.332900
      3 C5           7.4230     0.4520    19.9480 ca         1 L3I      -0.082000
      4 C6           9.1070     0.6980    21.7550 c          1 L3I       0.603100
      5 C7           9.6920    -0.0040    23.0030 c3         1 L3I      -0.072700
      6 C8           9.4490     0.9510    24.1830 c3         1 L3I      -0.089100
      7 C10         11.1800    -0.2350    22.7160 ca         1 L3I      -0.059300
      8 C13         13.8830    -0.7600    22.1370 ca         1 L3I      -0.098000
      9 C15         11.5360    -0.9490    21.5690 ca         1 L3I      -0.101000
     10 C14         12.8700    -1.1980    21.2950 ca         1 L3I       0.128000
     11 C12         13.5270    -0.0520    23.2760 ca         1 L3I      -0.100000
     12 C11         12.1900     0.2120    23.5640 ca         1 L3I      -0.093000
     13 C9           9.0400    -1.3580    23.3350 c3         1 L3I      -0.089100
     14 O            9.5050     1.8070    21.4220 o          1 L3I      -0.571100
     15 C1           6.1040     0.0050    19.7760 ca         1 L3I      -0.085300
     16 C            5.4420    -0.8920    20.7800 c3         1 L3I      -0.051800
     17 N            7.3360     1.6870    17.8900 nb         1 L3I      -0.646000
     18 C3           6.0770     1.2710    17.7300 ca         1 L3I       0.315900
     19 C2           5.4380     0.4360    18.6340 ca         1 L3I      -0.144000
     20 H1           7.8410    -0.8540    21.4790 hn         1 L3I       0.155000
     21 H2           9.0120     1.6170    19.0920 h4         1 L3I       0.047100
     22 H3           9.8310     0.5180    25.1070 hc         1 L3I       0.047200
     23 H4           9.9250     1.9160    24.0190 hc         1 L3I       0.047200
     24 H5           8.3770     1.1100    24.3050 hc         1 L3I       0.047200
     25 H6          14.9190    -0.9670    21.9050 ha         1 L3I       0.132000
     26 H7          10.7780    -1.3070    20.8850 ha         1 L3I       0.128000
     27 H8          14.3000     0.3020    23.9450 ha         1 L3I       0.120000
     28 H9          11.9490     0.7710    24.4560 ha         1 L3I       0.120000
     29 H10          9.5180    -1.7710    24.2230 hc         1 L3I       0.047200
     30 H11          7.9770    -1.2390    23.5550 hc         1 L3I       0.047200
     31 H12          9.1590    -2.0870    22.5320 hc         1 L3I       0.047200
     32 H13          5.9410    -1.8650    20.8320 hc         1 L3I       0.046033
     33 H14          5.4790    -0.4560    21.7810 hc         1 L3I       0.046033
     34 H15          4.4010    -1.0640    20.5130 hc         1 L3I       0.046033
     35 H16          5.5600     1.6140    16.8400 h4         1 L3I       0.022100
     36 H17          4.4170     0.1240    18.4550 ha         1 L3I       0.121000
     37 CL          13.2870    -2.0910    19.8430 cl         1 L3I      -0.212000
@<TRIPOS>BOND
     1     1     3 1   
     2     1     4 1   
     3     1    20 1   
     4     2     3 ar  
     5     2    17 ar  
     6     2    21 1   
     7     3    15 ar  
     8     4     5 1   
     9     4    14 2   
    10     5     6 1   
    11     5     7 1   
    12     5    13 1   
    13     6    22 1   
    14     6    23 1   
    15     6    24 1   
    16     7     9 ar  
    17     7    12 ar  
    18     8    10 ar  
    19     8    11 ar  
    20     8    25 1   
    21     9    10 ar  
    22     9    26 1   
    23    10    37 1   
    24    11    12 ar  
    25    11    27 1   
    26    12    28 1   
    27    13    29 1   
    28    13    30 1   
    29    13    31 1   
    30    15    16 1   
    31    15    19 ar  
    32    16    32 1   
    33    16    33 1   
    34    16    34 1   
    35    17    18 ar  
    36    18    19 ar  
    37    18    35 1   
    38    19    36 1   
@<TRIPOS>SUBSTRUCTURE
     1 L3I         1 TEMP              0 ****  ****    0 ROOT
