@<TRIPOS>MOLECULE
L3I
   37    38     1     0     0
SMALL
No Charge or Current Charge


@<TRIPOS>ATOM
      1 N1           8.0580     0.3520    21.1750 ns         1 L3I      -0.152000
      2 C4           7.5200     1.8750    19.2610 ca         1 L3I       0.332900
      3 C5           7.2900     0.7010    20.0240 ca         1 L3I      -0.082000
      4 C6           9.1960     0.9120    21.7470 c          1 L3I       0.603100
      5 C7           9.7360     0.2110    23.0400 c3         1 L3I      -0.072700
      6 C8           9.6370     1.2460    24.2000 c3         1 L3I      -0.089100
      7 C10         11.1850    -0.2600    22.7580 ca         1 L3I      -0.059300
      8 C13         13.8030    -1.1790    22.1620 ca         1 L3I      -0.098000
      9 C15         11.4250    -1.1140    21.6550 ca         1 L3I      -0.101000
     10 C14         12.7210    -1.5670    21.3620 ca         1 L3I       0.128000
     11 C12         13.5860    -0.3350    23.2620 ca         1 L3I      -0.100000
     12 C11         12.2900     0.1220    23.5600 ca         1 L3I      -0.093000
     13 C9           8.8970    -1.0390    23.4570 c3         1 L3I      -0.089100
     14 O            9.7660     1.8860    21.2670 o          1 L3I      -0.571100
     15 C1           6.2400    -0.1580    19.6260 ca         1 L3I      -0.085300
     16 C            5.9180    -1.4410    20.3870 c3         1 L3I      -0.051800
     17 N            6.7900     2.2110    18.1700 nb         1 L3I      -0.646000
     18 C3           5.7930     1.3790    17.7970 ca         1 L3I       0.315900
     19 C2           5.4880     0.1970    18.4910 ca         1 L3I      -0.144000
     20 H1           7.7040    -0.4580    21.6670 hn         1 L3I       0.155000
     21 H2           8.3000     2.5860    19.5190 h4         1 L3I       0.047100
     22 H3           9.9620     0.8100    25.1530 hc         1 L3I       0.047200
     23 H4          10.2510     2.1320    23.9980 hc         1 L3I       0.047200
     24 H5           8.6010     1.5840    24.3290 hc         1 L3I       0.047200
     25 H6          14.8050    -1.5320    21.9320 ha         1 L3I       0.132000
     26 H7          10.6060    -1.4320    21.0160 ha         1 L3I       0.128000
     27 H8          14.4240    -0.0330    23.8870 ha         1 L3I       0.120000
     28 H9          12.1680     0.7710    24.4220 ha         1 L3I       0.120000
     29 H10          9.3290    -1.5080    24.3490 hc         1 L3I       0.047200
     30 H11          7.8620    -0.7650    23.6970 hc         1 L3I       0.047200
     31 H12          8.8750    -1.8000    22.6670 hc         1 L3I       0.047200
     32 H13          6.7810    -2.1170    20.4060 hc         1 L3I       0.046033
     33 H14          5.6340    -1.2240    21.4240 hc         1 L3I       0.046033
     34 H15          5.0850    -1.9870    19.9270 hc         1 L3I       0.046033
     35 H16          5.2210     1.6690    16.9170 h4         1 L3I       0.022100
     36 H17          4.6720    -0.4300    18.1420 ha         1 L3I       0.121000
     37 Cl          12.9850    -2.6260    19.9820 cl         1 L3I      -0.212000
@<TRIPOS>BOND
     1     1     3 1   
     2     1     4 1   
     3     1    20 1   
     4     2     3 ar  
     5     2    17 ar  
     6     2    21 1   
     7     3    15 ar  
     8     4     5 1   
     9     4    14 2   
    10     5     6 1   
    11     5     7 1   
    12     5    13 1   
    13     6    22 1   
    14     6    23 1   
    15     6    24 1   
    16     7     9 ar  
    17     7    12 ar  
    18     8    10 ar  
    19     8    11 ar  
    20     8    25 1   
    21     9    10 ar  
    22     9    26 1   
    23    10    37 1   
    24    11    12 ar  
    25    11    27 1   
    26    12    28 1   
    27    13    29 1   
    28    13    30 1   
    29    13    31 1   
    30    15    16 1   
    31    15    19 ar  
    32    16    32 1   
    33    16    33 1   
    34    16    34 1   
    35    17    18 ar  
    36    18    19 ar  
    37    18    35 1   
    38    19    36 1   
@<TRIPOS>SUBSTRUCTURE
     1 L3I         1 TEMP              0 ****  ****    0 ROOT
