@<TRIPOS>MOLECULE
L3J
   88    90     1     0     0
SMALL
bcc


@<TRIPOS>ATOM
      1 C15         -4.4260     2.6470    -1.9140 c3         1 L3J      -0.127000
      2 C17         -4.6200     1.8250    -3.1880 c3         1 L3J      -0.087600
      3 C20          1.6610    -1.3880     0.3890 ca         1 L3J      -0.098000
      4 C21          2.9280    -1.7550    -0.0510 ca         1 L3J      -0.073300
      5 C22          3.4410    -3.1650     0.1080 c3         1 L3J      -0.029100
      6 C24          1.5610    -4.4110    -1.1050 c3         1 L3J      -0.076400
      7 C26         -0.9420    -4.1690    -0.7300 ca         1 L3J      -0.077300
      8 C28         -2.7410    -2.8930    -1.7190 ca         1 L3J      -0.121000
      9 C02         -0.2260     0.2400     0.6230 c          1 L3J       0.692700
     10 N03         -0.7290    -0.4660     1.6520 ns         1 L3J      -0.564900
     11 C04         -2.1390    -0.5420     1.9610 c3         1 L3J       0.071700
     12 C05         -2.5780    -2.0120     1.9620 c3         1 L3J      -0.050100
     13 C06         -2.4650     0.1800     3.2780 c3         1 L3J       0.154800
     14 N07         -3.8550     0.5420     3.4670 n7         1 L3J      -0.823200
     15 C08         -4.3560     1.5360     2.5450 c3         1 L3J       0.056500
     16 C09         -5.3290     2.4960     3.2690 c3         1 L3J       0.166100
     17 O10         -6.3800     1.7690     3.8620 oh         1 L3J      -0.587800
     18 C11         -4.5870     3.3610     4.2730 c3         1 L3J      -0.126100
     19 C12         -5.0450     0.9400     1.3260 c          1 L3J       0.687500
     20 N13         -5.1350     1.8010     0.2520 ne         1 L3J      -0.675100
     21 C14         -4.3580     1.7280    -0.7420 c2         1 L3J       0.517200
     22 C16         -3.1370     3.4690    -1.9720 c3         1 L3J      -0.087600
     23 O18         -5.5510    -0.1610     1.3210 o          1 L3J      -0.547100
     24 C19          1.1830    -0.0910     0.2470 ca         1 L3J      -0.142600
     25 C23          2.3620    -4.2390     0.1860 c3         1 L3J      -0.073400
     26 C25          0.2110    -5.1260    -0.8980 c3         1 L3J      -0.030100
     27 C27         -1.6950    -3.7960    -1.8410 ca         1 L3J      -0.126000
     28 C29         -3.0420    -2.3350    -0.4850 ca         1 L3J      -0.120000
     29 C30         -2.2980    -2.6770     0.6420 ca         1 L3J      -0.077300
     30 C31         -1.2660    -3.6030     0.5040 ca         1 L3J      -0.129000
     31 C32          3.7200    -0.7710    -0.6330 ca         1 L3J      -0.122000
     32 C33          3.2570     0.5330    -0.7730 ca         1 L3J       0.114600
     33 N34          4.0680     1.5130    -1.4070 nh         1 L3J      -0.675900
     34 C35          4.2540     1.4500    -2.8590 c3         1 L3J       0.239800
     35 C36          3.1300     2.1450    -3.6110 c3         1 L3J      -0.092400
     36 C37          3.2990     2.0110    -5.1170 c3         1 L3J      -0.089100
     37 S38          5.0120     2.4890    -0.4800 s6         1 L3J       1.263900
     38 O39          4.3590     2.6230     0.8120 o          1 L3J      -0.601800
     39 C40          6.5360     1.6040    -0.2350 c3         1 L3J      -0.262300
     40 O41          5.3080     3.6820    -1.2600 o          1 L3J      -0.601800
     41 C42          1.9820     0.8760    -0.3480 ca         1 L3J      -0.043000
     42 H1          -5.2780     3.3170    -1.7780 hc         1 L3J       0.073700
     43 H2          -5.5560     1.2660    -3.1670 hc         1 L3J       0.041533
     44 H3          -4.6400     2.4790    -4.0600 hc         1 L3J       0.041533
     45 H4          -3.8040     1.1120    -3.3290 hc         1 L3J       0.041533
     46 H6           4.1260    -3.3850    -0.7150 hc         1 L3J       0.050700
     47 H7           4.0520    -3.2080     1.0160 hc         1 L3J       0.050700
     48 H8           1.3820    -3.4410    -1.5780 hc         1 L3J       0.046700
     49 H9           2.1690    -4.9790    -1.8140 hc         1 L3J       0.046700
     50 H10         -3.3280    -2.6270    -2.5890 ha         1 L3J       0.133000
     51 H11         -0.1110    -1.0600     2.1810 hn         1 L3J       0.316500
     52 H12         -2.6470    -0.0250     1.1460 h1         1 L3J       0.072700
     53 H13         -2.0590    -2.5380     2.7700 hc         1 L3J       0.059700
     54 H14         -3.6440    -2.0620     2.1930 hc         1 L3J       0.059700
     55 H15         -2.1480    -0.4400     4.1210 h1         1 L3J       0.061700
     56 H16         -1.8690     1.0940     3.3220 h1         1 L3J       0.061700
     57 H17         -4.4520    -0.2750     3.4840 hn         1 L3J       0.386800
     58 H19         -3.5160     2.1410     2.1880 h1         1 L3J       0.081700
     59 H20         -5.7970     3.1450     2.5230 h1         1 L3J       0.087700
     60 H21         -6.0010     1.2410     4.5740 ho         1 L3J       0.408000
     61 H22         -3.8660     4.0070     3.7700 hc         1 L3J       0.045367
     62 H23         -5.2840     4.0000     4.8160 hc         1 L3J       0.045367
     63 H24         -4.0450     2.7500     4.9960 hc         1 L3J       0.045367
     64 H25         -3.5560     0.9810    -0.7910 h4         1 L3J      -0.017200
     65 H26         -3.1410     4.1110    -2.8540 hc         1 L3J       0.041533
     66 H27         -3.0300     4.1050    -1.0930 hc         1 L3J       0.041533
     67 H28         -2.2570     2.8250    -2.0300 hc         1 L3J       0.041533
     68 H29          2.8370    -5.1910     0.4340 hc         1 L3J       0.040200
     69 H30          1.6950    -4.0370     1.0290 hc         1 L3J       0.040200
     70 H31          0.0070    -5.7680    -1.7570 hc         1 L3J       0.047700
     71 H32          0.2820    -5.7900    -0.0330 hc         1 L3J       0.047700
     72 H33         -1.4660    -4.2240    -2.8100 ha         1 L3J       0.129000
     73 H34         -3.8680    -1.6380    -0.3980 ha         1 L3J       0.140000
     74 H35         -0.7030    -3.8940     1.3860 ha         1 L3J       0.120000
     75 H36          4.7110    -1.0240    -0.9960 ha         1 L3J       0.131000
     76 H37          5.2130     1.8970    -3.1260 h1         1 L3J       0.047700
     77 H38          4.3160     0.3990    -3.1500 h1         1 L3J       0.047700
     78 H39          2.1720     1.7180    -3.3040 hc         1 L3J       0.057200
     79 H40          3.1130     3.1980    -3.3230 hc         1 L3J       0.057200
     80 H41          2.4900     2.5110    -5.6490 hc         1 L3J       0.035367
     81 H42          4.2380     2.4530    -5.4530 hc         1 L3J       0.035367
     82 H43          3.2970     0.9640    -5.4260 hc         1 L3J       0.035367
     83 H44          6.9940     1.4000    -1.2000 h1         1 L3J       0.100033
     84 H45          7.1990     2.2240     0.3660 h1         1 L3J       0.100033
     85 H46          6.3280     0.6720     0.2860 h1         1 L3J       0.100033
     86 H47          1.6200     1.8850    -0.4930 ha         1 L3J       0.166000
     87 H5           1.0120    -2.1420     0.8090 ha         1 L3J       0.140000
     88 O01         -0.8650     1.0790     0.0010 o          1 L3J      -0.612100
@<TRIPOS>BOND
     1     1     2 1   
     2     1    21 1   
     3     1    22 1   
     4     1    42 1   
     5     2    43 1   
     6     2    44 1   
     7     2    45 1   
     8     3     4 ar  
     9     3    24 ar  
    10     3    87 1   
    11     4     5 1   
    12     4    31 ar  
    13     5    25 1   
    14     5    46 1   
    15     5    47 1   
    16     6    25 1   
    17     6    26 1   
    18     6    48 1   
    19     6    49 1   
    20     7    26 1   
    21     7    27 ar  
    22     7    30 ar  
    23     8    27 ar  
    24     8    28 ar  
    25     8    50 1   
    26     9    10 1   
    27     9    24 1   
    28     9    88 2   
    29    10    11 1   
    30    10    51 1   
    31    11    12 1   
    32    11    13 1   
    33    11    52 1   
    34    12    29 1   
    35    12    53 1   
    36    12    54 1   
    37    13    14 1   
    38    13    55 1   
    39    13    56 1   
    40    14    15 1   
    41    14    57 1   
    42    15    16 1   
    43    15    19 1   
    44    15    58 1   
    45    16    17 1   
    46    16    18 1   
    47    16    59 1   
    48    17    60 1   
    49    18    61 1   
    50    18    62 1   
    51    18    63 1   
    52    19    20 1   
    53    19    23 2   
    54    20    21 2   
    55    21    64 1   
    56    22    65 1   
    57    22    66 1   
    58    22    67 1   
    59    24    41 ar  
    60    25    68 1   
    61    25    69 1   
    62    26    70 1   
    63    26    71 1   
    64    27    72 1   
    65    28    29 ar  
    66    28    73 1   
    67    29    30 ar  
    68    30    74 1   
    69    31    32 ar  
    70    31    75 1   
    71    32    33 1   
    72    32    41 ar  
    73    33    34 1   
    74    33    37 1   
    75    34    35 1   
    76    34    76 1   
    77    34    77 1   
    78    35    36 1   
    79    35    78 1   
    80    35    79 1   
    81    36    80 1   
    82    36    81 1   
    83    36    82 1   
    84    37    38 2   
    85    37    39 1   
    86    37    40 2   
    87    39    83 1   
    88    39    84 1   
    89    39    85 1   
    90    41    86 1   
@<TRIPOS>SUBSTRUCTURE
     1 L3J         1 TEMP              0 ****  ****    0 ROOT
