@<TRIPOS>MOLECULE
L3J
   88    90     1     0     0
SMALL
No Charge or Current Charge


@<TRIPOS>ATOM
      1 C15         -3.9990     3.3920    -1.2160 c3         1 L3J      -0.127000
      2 C17         -2.8150     3.1750    -2.1870 c3         1 L3J      -0.087600
      3 C20          1.7990    -1.4190     0.5470 ca         1 L3J      -0.080000
      4 C21          3.0190    -1.8230    -0.0280 ca         1 L3J      -0.073300
      5 C22          3.5680    -3.2380     0.1950 c3         1 L3J      -0.029100
      6 C24          1.6540    -4.4930    -1.0480 c3         1 L3J      -0.076400
      7 C26         -0.8870    -4.3560    -0.7660 ca         1 L3J      -0.077300
      8 C28         -2.7490    -3.2140    -1.8540 ca         1 L3J      -0.103000
      9 C02         -0.1060     0.2630     0.8150 c          1 L3J       0.625700
     10 N03         -0.7710    -0.7000     1.5400 ns         1 L3J      -0.497900
     11 C04         -2.2000    -0.6990     1.8560 c3         1 L3J       0.071700
     12 C05         -2.7120    -2.1640     1.8320 c3         1 L3J      -0.050100
     13 C06         -2.4830     0.0500     3.1870 c3         1 L3J       0.154800
     14 N07         -3.9310     0.2640     3.4540 n7         1 L3J      -0.878400
     15 C08         -4.6410     1.3440     2.6460 c3         1 L3J       0.056500
     16 C09         -5.7850     1.9590     3.5030 c3         1 L3J       0.189300
     17 O10         -5.3440     1.8940     4.8580 oh         1 L3J      -0.650000
     18 C11         -6.1310     3.4210     3.1530 c3         1 L3J      -0.126100
     19 C12         -5.2050     0.8820     1.2510 c          1 L3J       0.687500
     20 N13         -5.2120     1.8630     0.2670 ne         1 L3J      -0.675100
     21 C14         -4.0710     2.2880    -0.1780 c2         1 L3J       0.517200
     22 C16         -3.9370     4.7860    -0.5490 c3         1 L3J      -0.087600
     23 O18         -5.5890    -0.2590     1.0450 o          1 L3J      -0.547100
     24 C19          1.2580    -0.1370     0.2960 ca         1 L3J      -0.142600
     25 C23          2.4930    -4.3570     0.2490 c3         1 L3J      -0.073400
     26 C25          0.3290    -5.2770    -0.8650 c3         1 L3J      -0.030100
     27 C27         -1.6450    -4.0790    -1.9200 ca         1 L3J      -0.108000
     28 C29         -3.0990    -2.6110    -0.6360 ca         1 L3J      -0.102000
     29 C30         -2.3520    -2.8750     0.5270 ca         1 L3J      -0.077300
     30 C31         -1.2500    -3.7560     0.4580 ca         1 L3J      -0.111000
     31 C32          3.7310    -0.9100    -0.8260 ca         1 L3J      -0.104000
     32 C33          3.2320     0.3840    -1.0620 ca         1 L3J       0.253000
     33 N34          3.9500     1.2820    -1.8700 nh         1 L3J      -0.814300
     34 C35          4.3040     0.9310    -3.2570 c3         1 L3J       0.239800
     35 C36          3.4250     1.6510    -4.2980 c3         1 L3J      -0.092400
     36 C37          3.7650     1.2630    -5.7510 c3         1 L3J      -0.089100
     37 S38          4.7870     2.5940    -1.1180 s6         1 L3J       1.233100
     38 O39          3.8150     3.2900    -0.2700 o          1 L3J      -0.531000
     39 C40          5.9810     1.7870    -0.0690 c3         1 L3J      -0.373100
     40 O41          5.5040     3.3240    -2.1680 o          1 L3J      -0.531000
     41 C42          1.9940     0.7580    -0.5090 ca         1 L3J      -0.025000
     42 H1          -4.9180     3.3580    -1.8160 hc         1 L3J       0.073700
     43 H2          -2.8940     2.1990    -2.6830 hc         1 L3J       0.041533
     44 H3          -2.8030     3.9490    -2.9640 hc         1 L3J       0.041533
     45 H4          -1.8580     3.2100    -1.6520 hc         1 L3J       0.041533
     46 H6           4.2850    -3.4900    -0.5960 hc         1 L3J       0.050700
     47 H7           4.1360    -3.2570     1.1330 hc         1 L3J       0.050700
     48 H8           1.4260    -3.5040    -1.4620 hc         1 L3J       0.046700
     49 H9           2.2690    -5.0010    -1.8010 hc         1 L3J       0.046700
     50 H10         -3.3280    -3.0030    -2.7510 ha         1 L3J       0.115000
     51 H11         -0.2700    -1.5650     1.6880 hn         1 L3J       0.316500
     52 H12         -2.7060    -0.1630     1.0450 h1         1 L3J       0.072700
     53 H13         -2.2900    -2.7070     2.6880 hc         1 L3J       0.059700
     54 H14         -3.7990    -2.1780     1.9710 hc         1 L3J       0.059700
     55 H15         -2.0370    -0.5340     4.0040 h1         1 L3J       0.061700
     56 H16         -1.9590     1.0160     3.1700 h1         1 L3J       0.061700
     57 H17         -4.4350    -0.6320     3.3490 hn         1 L3J       0.442000
     58 H19         -3.9310     2.1590     2.4550 h1         1 L3J       0.081700
     59 H20         -6.6870     1.3410     3.3780 h1         1 L3J       0.087700
     60 H21         -4.6080     1.2300     4.7770 ho         1 L3J       0.447000
     61 H22         -6.5160     3.4980     2.1300 hc         1 L3J       0.045367
     62 H23         -6.9040     3.8040     3.8310 hc         1 L3J       0.045367
     63 H24         -5.2490     4.0660     3.2400 hc         1 L3J       0.045367
     64 H25         -3.1420     1.8830     0.2100 h4         1 L3J      -0.017200
     65 H26         -3.9290     5.5790    -1.3060 hc         1 L3J       0.041533
     66 H27         -4.8080     4.9440     0.0980 hc         1 L3J       0.041533
     67 H28         -3.0330     4.8860     0.0640 hc         1 L3J       0.041533
     68 H29          2.9950    -5.3150     0.4370 hc         1 L3J       0.040200
     69 H30          1.8350    -4.2010     1.1100 hc         1 L3J       0.040200
     70 H31          0.2060    -5.9530    -1.7200 hc         1 L3J       0.047700
     71 H32          0.3940    -5.9280     0.0160 hc         1 L3J       0.047700
     72 H33         -1.3750    -4.5290    -2.8720 ha         1 L3J       0.111000
     73 H34         -3.9470    -1.9310    -0.5980 ha         1 L3J       0.122000
     74 H35         -0.6660    -3.9640     1.3510 ha         1 L3J       0.102000
     75 H36          4.6810    -1.2020    -1.2650 ha         1 L3J       0.113000
     76 H37          5.3620     1.1480    -3.4560 h1         1 L3J       0.047700
     77 H38          4.1830    -0.1510    -3.4040 h1         1 L3J       0.047700
     78 H39          2.3720     1.4160    -4.1010 hc         1 L3J       0.057200
     79 H40          3.5380     2.7360    -4.1820 hc         1 L3J       0.057200
     80 H41          3.1150     1.7980    -6.4520 hc         1 L3J       0.035367
     81 H42          4.8060     1.5170    -5.9860 hc         1 L3J       0.035367
     82 H43          3.6270     0.1860    -5.9070 hc         1 L3J       0.035367
     83 H44          6.6120     1.1640    -0.7100 h1         1 L3J       0.100033
     84 H45          6.5640     2.5690     0.4280 h1         1 L3J       0.100033
     85 H46          5.4280     1.1820     0.6560 h1         1 L3J       0.100033
     86 H47          1.5990     1.7460    -0.7270 ha         1 L3J       0.148000
     87 H5           1.2670    -2.1210     1.1770 ha         1 L3J       0.122000
     88 O01         -0.6100     1.3520     0.5790 o          1 L3J      -0.612100
@<TRIPOS>BOND
     1     1     2 1   
     2     1    21 1   
     3     1    22 1   
     4     1    42 1   
     5     2    43 1   
     6     2    44 1   
     7     2    45 1   
     8     3     4 ar  
     9     3    24 ar  
    10     3    87 1   
    11     4     5 1   
    12     4    31 ar  
    13     5    25 1   
    14     5    46 1   
    15     5    47 1   
    16     6    25 1   
    17     6    26 1   
    18     6    48 1   
    19     6    49 1   
    20     7    26 1   
    21     7    27 ar  
    22     7    30 ar  
    23     8    27 ar  
    24     8    28 ar  
    25     8    50 1   
    26     9    10 1   
    27     9    24 1   
    28     9    88 2   
    29    10    11 1   
    30    10    51 1   
    31    11    12 1   
    32    11    13 1   
    33    11    52 1   
    34    12    29 1   
    35    12    53 1   
    36    12    54 1   
    37    13    14 1   
    38    13    55 1   
    39    13    56 1   
    40    14    15 1   
    41    14    57 1   
    42    15    16 1   
    43    15    19 1   
    44    15    58 1   
    45    16    17 1   
    46    16    18 1   
    47    16    59 1   
    48    17    60 1   
    49    18    61 1   
    50    18    62 1   
    51    18    63 1   
    52    19    20 1   
    53    19    23 2   
    54    20    21 2   
    55    21    64 1   
    56    22    65 1   
    57    22    66 1   
    58    22    67 1   
    59    24    41 ar  
    60    25    68 1   
    61    25    69 1   
    62    26    70 1   
    63    26    71 1   
    64    27    72 1   
    65    28    29 ar  
    66    28    73 1   
    67    29    30 ar  
    68    30    74 1   
    69    31    32 ar  
    70    31    75 1   
    71    32    33 1   
    72    32    41 ar  
    73    33    34 1   
    74    33    37 1   
    75    34    35 1   
    76    34    76 1   
    77    34    77 1   
    78    35    36 1   
    79    35    78 1   
    80    35    79 1   
    81    36    80 1   
    82    36    81 1   
    83    36    82 1   
    84    37    38 2   
    85    37    39 1   
    86    37    40 2   
    87    39    83 1   
    88    39    84 1   
    89    39    85 1   
    90    41    86 1   
@<TRIPOS>SUBSTRUCTURE
     1 L3J         1 TEMP              0 ****  ****    0 ROOT
