@<TRIPOS>MOLECULE
L3K
   20    20     1     0     0
SMALL
No Charge or Current Charge


@<TRIPOS>ATOM
      1 C01          3.0770     2.0530    18.1650 ca         1 L3K      -0.130000
      2 C02          3.3270     3.2350    17.4470 ca         1 L3K      -0.089000
      3 C03          4.5400     3.9430    17.6170 ca         1 L3K      -0.125600
      4 C04          5.4930     3.4300    18.5290 ca         1 L3K      -0.089000
      5 C05          5.2390     2.2480    19.2460 ca         1 L3K      -0.130000
      6 C06          4.0310     1.5510    19.0680 ca         1 L3K      -0.127300
      7 C07          3.7550     0.2660    19.8440 c3         1 L3K      -0.014100
      8 C08          3.7490    -0.9900    18.9490 c3         1 L3K       0.103600
      9 C10          4.8130     5.2220    16.8400 c          1 L3K       0.713600
     10 O11          5.8760     5.8030    17.0190 o          1 L3K      -0.721000
     11 O12          3.9620     5.6290    16.0610 o          1 L3K      -0.721000
     12 Br09         5.5270    -1.3240    18.1040 br         1 L3K      -0.288000
     13 H011         2.1360     1.5280    18.0180 ha         1 L3K       0.082500
     14 H021         2.5710     3.6000    16.7550 ha         1 L3K       0.126000
     15 H041         6.4370     3.9480    18.6850 ha         1 L3K       0.126000
     16 H051         5.9890     1.8740    19.9390 ha         1 L3K       0.082500
     17 H072         4.4930     0.1270    20.6420 hc         1 L3K       0.040200
     18 H071         2.7800     0.3420    20.3410 hc         1 L3K       0.040200
     19 H082         3.0200    -0.8890    18.1350 h1         1 L3K       0.059200
     20 H081         3.5100    -1.8820    19.5410 h1         1 L3K       0.059200
@<TRIPOS>BOND
     1     1     2 ar  
     2     1     6 ar  
     3     1    13 1   
     4     2     3 ar  
     5     2    14 1   
     6     3     4 ar  
     7     3     9 1   
     8     4     5 ar  
     9     4    15 1   
    10     5     6 ar  
    11     5    16 1   
    12     6     7 1   
    13     7     8 1   
    14     7    17 1   
    15     7    18 1   
    16     8    12 1   
    17     8    19 1   
    18     8    20 1   
    19     9    10 1   
    20     9    11 1   
@<TRIPOS>SUBSTRUCTURE
     1 L3K         1 TEMP              0 ****  ****    0 ROOT
