@<TRIPOS>MOLECULE
L3K
   20    20     1     0     0
SMALL
abcg2


@<TRIPOS>ATOM
      1 C01          3.0980     2.0550    18.1760 ca         1 L3K      -0.130000
      2 C02          3.3480     3.2160    17.4610 ca         1 L3K      -0.089000
      3 C03          4.5390     3.9200    17.6250 ca         1 L3K      -0.125600
      4 C04          5.4720     3.4210    18.5300 ca         1 L3K      -0.089000
      5 C05          5.2260     2.2550    19.2420 ca         1 L3K      -0.130000
      6 C06          4.0370     1.5530    19.0750 ca         1 L3K      -0.127300
      7 C07          3.7750     0.2800    19.8280 c3         1 L3K      -0.014100
      8 C08          3.7430    -0.9570    18.9490 c3         1 L3K       0.103600
      9 C10          4.8150     5.2010    16.8410 c          1 L3K       0.713600
     10 O11          5.8900     5.7810    17.0870 o          1 L3K      -0.721000
     11 O12          3.9420     5.5550    16.0260 o          1 L3K      -0.721000
     12 BR09         5.4750    -1.2720    18.0660 br         1 L3K      -0.288000
     13 H011         2.1580     1.5320    18.0350 ha         1 L3K       0.082500
     14 H021         2.6030     3.5860    16.7680 ha         1 L3K       0.126000
     15 H041         6.4040     3.9500    18.6780 ha         1 L3K       0.126000
     16 H051         5.9700     1.8840    19.9380 ha         1 L3K       0.082500
     17 H072         4.5050     0.1490    20.6280 hc         1 L3K       0.040200
     18 H071         2.7920     0.3260    20.3080 hc         1 L3K       0.040200
     19 H082         3.0070    -0.8680    18.1520 h1         1 L3K       0.059200
     20 H081         3.5280    -1.8510    19.5320 h1         1 L3K       0.059200
@<TRIPOS>BOND
     1     1     2 ar  
     2     1     6 ar  
     3     1    13 1   
     4     2     3 ar  
     5     2    14 1   
     6     3     4 ar  
     7     3     9 1   
     8     4     5 ar  
     9     4    15 1   
    10     5     6 ar  
    11     5    16 1   
    12     6     7 1   
    13     7     8 1   
    14     7    17 1   
    15     7    18 1   
    16     8    12 1   
    17     8    19 1   
    18     8    20 1   
    19     9    10 1   
    20     9    11 1   
@<TRIPOS>SUBSTRUCTURE
     1 L3K         1 TEMP              0 ****  ****    0 ROOT
