@<TRIPOS>MOLECULE
L3L
   36    38     1     0     0
SMALL
bcc


@<TRIPOS>ATOM
      1 C1          -3.6900     1.9500    -0.0050 ca         1 L3L      -0.111000
      2 C2          -3.8450     0.5720    -0.1470 ca         1 L3L      -0.117000
      3 C3          -2.4300     2.5310     0.0410 ca         1 L3L      -0.106000
      4 C4          -1.4820     0.3280    -0.1970 ca         1 L3L      -0.124600
      5 C5          -2.7370    -0.2610    -0.2540 ca         1 L3L      -0.083600
      6 C6          -1.3300     1.6960    -0.0490 ca         1 L3L      -0.089300
      7 C7          -0.1390    -0.3010    -0.2070 c          1 L3L       0.722100
      8 C8          -2.9210    -1.7270    -0.5190 c          1 L3L       0.693700
      9 C9           0.1270     2.0170    -0.0080 c5         1 L3L       0.143300
     10 C10          2.8150    -0.1560    -1.2420 c6         1 L3L      -0.131900
     11 C11          2.6710    -0.0020     1.2620 c6         1 L3L      -0.131900
     12 C12          4.3380    -0.1540    -1.1000 c6         1 L3L       0.151800
     13 C13          4.2000    -0.0210     1.3010 c6         1 L3L       0.151800
     14 C14          2.1970     0.5910    -0.0630 c6         1 L3L       0.135700
     15 N15          4.8130    -0.6900     0.1650 n7         1 L3L      -0.792200
     16 N16          0.7510     0.7170    -0.1450 n          1 L3L      -0.484800
     17 N17         -3.4220    -2.4190     0.5100 nt         1 L3L      -0.669000
     18 O18          0.1090    -1.4960    -0.2440 o          1 L3L      -0.605500
     19 O19         -2.6700    -2.2040    -1.6130 o          1 L3L      -0.573100
     20 H1          -4.5700     2.5760     0.0680 ha         1 L3L       0.137000
     21 H2          -4.8430     0.1530    -0.1870 ha         1 L3L       0.141000
     22 H3          -2.3180     3.6020     0.1490 ha         1 L3L       0.140000
     23 H10A         2.4570    -1.1870    -1.2700 hc         1 L3L       0.060450
     24 H11          2.2890    -1.0200     1.3750 hc         1 L3L       0.060450
     25 H11A         2.2820     0.5850     2.0990 hc         1 L3L       0.060450
     26 H12          4.7880    -0.7250    -1.9140 h1         1 L3L       0.051950
     27 H12A         4.7090     0.8720    -1.1990 h1         1 L3L       0.051950
     28 H13          4.5690     1.0110     1.3290 h1         1 L3L       0.051950
     29 H13A         4.5450    -0.4980     2.2200 h1         1 L3L       0.051950
     30 H14          2.5660     1.6210    -0.1110 h1         1 L3L       0.044700
     31 HN15         4.5890    -1.6780     0.2070 hn         1 L3L       0.354800
     32 HN17        -3.5740    -1.9950     1.4080 hn         1 L3L       0.316000
     33 HN1A        -3.6020    -3.4070     0.4250 hn         1 L3L       0.316000
     34 H9           0.4240     2.6880    -0.8190 h1         1 L3L       0.060700
     35 H17          0.4150     2.4930     0.9350 h1         1 L3L       0.060700
     36 H10          2.5230     0.3190    -2.1820 hc         1 L3L       0.060450
@<TRIPOS>BOND
     1     1     2 ar  
     2     1     3 ar  
     3     1    20 1   
     4     2     5 ar  
     5     2    21 1   
     6     3     6 ar  
     7     3    22 1   
     8     4     5 ar  
     9     4     6 ar  
    10     4     7 1   
    11     5     8 1   
    12     6     9 1   
    13     7    16 1   
    14     7    18 2   
    15     8    17 1   
    16     8    19 2   
    17     9    16 1   
    18     9    34 1   
    19     9    35 1   
    20    10    12 1   
    21    10    14 1   
    22    10    23 1   
    23    10    36 1   
    24    11    13 1   
    25    11    14 1   
    26    11    24 1   
    27    11    25 1   
    28    12    15 1   
    29    12    26 1   
    30    12    27 1   
    31    13    15 1   
    32    13    28 1   
    33    13    29 1   
    34    14    16 1   
    35    14    30 1   
    36    15    31 1   
    37    17    32 1   
    38    17    33 1   
@<TRIPOS>SUBSTRUCTURE
     1 L3L         1 TEMP              0 ****  ****    0 ROOT
