@<TRIPOS>MOLECULE
L3L
   36    38     1     0     0
SMALL
No Charge or Current Charge


@<TRIPOS>ATOM
      1 C1          -3.7060     1.8950     0.0650 ca         1 L3L      -0.093000
      2 C2          -3.8570     0.4950    -0.0240 ca         1 L3L      -0.099000
      3 C3          -2.4270     2.4750     0.0620 ca         1 L3L      -0.088000
      4 C4          -1.4490     0.2550    -0.0950 ca         1 L3L      -0.124600
      5 C5          -2.7290    -0.3630    -0.1180 ca         1 L3L      -0.083600
      6 C6          -1.3070     1.6370    -0.0180 ca         1 L3L      -0.089300
      7 C7          -0.0770    -0.3290    -0.0860 c          1 L3L       0.579600
      8 C8          -2.9360    -1.8580    -0.2670 c          1 L3L       0.626700
      9 C9           0.1460     2.0820    -0.0130 c5         1 L3L       0.143300
     10 C10          2.8780    -0.0430    -1.2950 c6         1 L3L      -0.131900
     11 C11          2.8310     0.0090     1.2680 c6         1 L3L      -0.131900
     12 C12          4.4210    -0.0840    -1.2210 c6         1 L3L       0.151800
     13 C13          4.3760    -0.0340     1.2510 c6         1 L3L       0.151800
     14 C14          2.2940     0.6420    -0.0370 c6         1 L3L       0.135700
     15 N15          4.8750    -0.7250     0.0370 n7         1 L3L      -0.847400
     16 N16          0.8190     0.7550    -0.0630 n          1 L3L      -0.417800
     17 N17         -4.0450    -2.3880     0.2970 nt         1 L3L      -0.602000
     18 O18          0.2360    -1.5100    -0.0490 o          1 L3L      -0.530000
     19 O19         -2.2160    -2.5820    -0.9330 o          1 L3L      -0.573100
     20 H1          -4.5870     2.5300     0.1260 ha         1 L3L       0.119000
     21 H2          -4.8650     0.0870    -0.0500 ha         1 L3L       0.123000
     22 H3          -2.3090     3.5540     0.1270 ha         1 L3L       0.122000
     23 H10A         2.4910    -1.0660    -1.3890 hc         1 L3L       0.060450
     24 H11          2.4390    -1.0090     1.3890 hc         1 L3L       0.060450
     25 H11A         2.4860     0.5860     2.1360 hc         1 L3L       0.060450
     26 H12          4.8180    -0.6380    -2.0860 h1         1 L3L       0.051950
     27 H12A         4.8190     0.9420    -1.2760 h1         1 L3L       0.051950
     28 H13          4.7730     0.9930     1.2800 h1         1 L3L       0.051950
     29 H13A         4.7410    -0.5530     2.1510 h1         1 L3L       0.051950
     30 H14          2.6800     1.6730    -0.0520 h1         1 L3L       0.044700
     31 HN15         4.5250    -1.6920     0.0500 hn         1 L3L       0.410000
     32 HN17        -4.6570    -1.8090     0.8500 hn         1 L3L       0.316000
     33 HN1A        -4.2270    -3.3750     0.1910 hn         1 L3L       0.316000
     34 H9           0.3870     2.6960    -0.8910 h1         1 L3L       0.060700
     35 H17          0.4000     2.6350     0.9010 h1         1 L3L       0.060700
     36 H10          2.5630     0.4980    -2.1980 hc         1 L3L       0.060450
@<TRIPOS>BOND
     1     1     2 ar  
     2     1     3 ar  
     3     1    20 1   
     4     2     5 ar  
     5     2    21 1   
     6     3     6 ar  
     7     3    22 1   
     8     4     5 ar  
     9     4     6 ar  
    10     4     7 1   
    11     5     8 1   
    12     6     9 1   
    13     7    16 1   
    14     7    18 2   
    15     8    17 1   
    16     8    19 2   
    17     9    16 1   
    18     9    34 1   
    19     9    35 1   
    20    10    12 1   
    21    10    14 1   
    22    10    23 1   
    23    10    36 1   
    24    11    13 1   
    25    11    14 1   
    26    11    24 1   
    27    11    25 1   
    28    12    15 1   
    29    12    26 1   
    30    12    27 1   
    31    13    15 1   
    32    13    28 1   
    33    13    29 1   
    34    14    16 1   
    35    14    30 1   
    36    15    31 1   
    37    17    32 1   
    38    17    33 1   
@<TRIPOS>SUBSTRUCTURE
     1 L3L         1 TEMP              0 ****  ****    0 ROOT
