@<TRIPOS>MOLECULE
L3M
   96    98     1     0     0
SMALL
abcg2


@<TRIPOS>ATOM
      1 O01         -0.0000   -18.9010    34.9710 o          1 L3M      -0.577100
      2 C02         -0.3870   -18.7940    33.8160 c          1 L3M       0.615700
      3 C03          0.5820   -18.5120    32.7080 ca         1 L3M      -0.143600
      4 C04          0.3690   -17.4280    31.8600 ca         1 L3M      -0.084000
      5 C05          1.2830   -17.1030    30.8620 ca         1 L3M      -0.069300
      6 C06          1.1510   -15.8840    29.9800 c3         1 L3M      -0.030100
      7 C07         -0.0710   -15.0040    30.2140 c3         1 L3M      -0.077400
      8 C08         -1.3630   -15.5530    29.6140 c3         1 L3M      -0.073400
      9 C09         -2.6140   -14.8380    30.1350 c3         1 L3M      -0.032100
     10 C10         -2.8680   -15.1200    31.5920 ca         1 L3M      -0.078300
     11 C11         -2.6300   -14.1700    32.5790 ca         1 L3M      -0.108000
     12 C12         -2.8320   -14.4800    33.9200 ca         1 L3M      -0.103000
     13 C13         -3.2700   -15.7420    34.2900 ca         1 L3M      -0.098000
     14 C14         -3.5180   -16.7110    33.3200 ca         1 L3M      -0.076300
     15 C15         -3.9550   -18.0960    33.7030 c3         1 L3M      -0.047100
     16 C16         -2.8230   -18.9580    34.2780 c3         1 L3M       0.112700
     17 C17         -3.3070   -20.3980    34.4470 c3         1 L3M       0.170800
     18 N18         -2.3090   -21.2400    35.0770 n7         1 L3M      -0.888400
     19 C19         -2.6510   -21.8930    36.3210 c3         1 L3M       0.068500
     20 C20         -3.2190   -20.8900    37.3210 c          1 L3M       0.596100
     21 N21         -4.3010   -21.3290    37.9820 ns         1 L3M      -0.513900
     22 C22         -4.9870   -20.5690    39.0040 c3         1 L3M       0.103000
     23 C23         -5.7290   -21.4800    39.9770 c3         1 L3M      -0.078700
     24 C24         -6.5640   -20.6320    40.9310 c3         1 L3M      -0.088100
     25 C25         -4.7690   -22.3810    40.7460 c3         1 L3M      -0.088100
     26 O26         -2.7150   -19.7940    37.5200 o          1 L3M      -0.569100
     27 C27         -1.3510   -22.5180    36.8660 c3         1 L3M       0.192300
     28 O28         -0.3320   -21.5540    36.9280 oh         1 L3M      -0.655000
     29 C29         -1.5280   -23.1770    38.2240 c3         1 L3M      -0.079400
     30 C30         -0.3330   -24.0230    38.6490 c3         1 L3M      -0.070400
     31 C31         -0.5500   -24.6800    40.0050 c3         1 L3M      -0.090100
     32 N32         -1.6630   -18.8860    33.4130 ns         1 L3M      -0.496900
     33 C33         -3.3160   -16.3810    31.9850 ca         1 L3M      -0.116000
     34 C34          2.3970   -17.9260    30.7070 ca         1 L3M      -0.061000
     35 C35          2.6130   -19.0100    31.5450 ca         1 L3M       0.241000
     36 N36          3.7800   -19.8050    31.3630 nh         1 L3M      -0.788300
     37 C37          4.7760   -19.8190    32.4400 c3         1 L3M       0.226800
     38 C38          5.5830   -18.5310    32.4630 c3         1 L3M      -0.078400
     39 C39          6.4010   -18.3110    31.2000 c3         1 L3M      -0.087100
     40 S40          3.6830   -21.0680    30.3040 s6         1 L3M       1.222100
     41 O41          2.7810   -20.6610    29.2390 o          1 L3M      -0.533500
     42 C42          2.9150   -22.4060    31.1890 c3         1 L3M      -0.378100
     43 O43          5.0420   -21.4680    29.9710 o          1 L3M      -0.533500
     44 C44          1.7180   -19.2940    32.5700 ca         1 L3M      -0.088000
     45 H041        -0.5100   -16.8140    32.0140 ha         1 L3M       0.132000
     46 H061         1.1790   -16.2040    28.9330 hc         1 L3M       0.053700
     47 H062         2.0530   -15.2810    30.1190 hc         1 L3M       0.053700
     48 H072         0.1240   -14.0220    29.7760 hc         1 L3M       0.045700
     49 H071        -0.1940   -14.8220    31.2860 hc         1 L3M       0.045700
     50 H081        -1.3200   -15.4530    28.5260 hc         1 L3M       0.042700
     51 H082        -1.4560   -16.6260    29.8080 hc         1 L3M       0.042700
     52 H092        -2.5090   -13.7610    29.9780 hc         1 L3M       0.048700
     53 H091        -3.4770   -15.1590    29.5460 hc         1 L3M       0.048700
     54 H111        -2.2840   -13.1820    32.3010 ha         1 L3M       0.112000
     55 H121        -2.6470   -13.7300    34.6790 ha         1 L3M       0.116000
     56 H131        -3.4240   -15.9750    35.3380 ha         1 L3M       0.121000
     57 H152        -4.7520   -18.0500    34.4490 hc         1 L3M       0.050200
     58 H151        -4.3810   -18.5990    32.8280 hc         1 L3M       0.050200
     59 H161        -2.5230   -18.5770    35.2540 h1         1 L3M       0.111700
     60 H171        -4.2420   -20.3870    35.0170 h1         1 L3M       0.032700
     61 H172        -3.5690   -20.7970    33.4620 h1         1 L3M       0.032700
     62 H1          -1.9640   -21.9310    34.4260 hn         1 L3M       0.430000
     63 H191        -3.3800   -22.7080    36.1890 h1         1 L3M       0.020700
     64 H211        -4.7120   -22.2040    37.6990 hn         1 L3M       0.307500
     65 H221        -4.2560   -19.9670    39.5490 h1         1 L3M       0.053200
     66 H222        -5.6930   -19.8700    38.5400 h1         1 L3M       0.053200
     67 H231        -6.4140   -22.1110    39.3990 hc         1 L3M       0.040700
     68 H243        -7.1400   -21.2630    41.6090 hc         1 L3M       0.037033
     69 H242        -5.9250   -19.9890    41.5410 hc         1 L3M       0.037033
     70 H241        -7.2660   -19.9930    40.3940 hc         1 L3M       0.037033
     71 H253        -5.3120   -23.0460    41.4190 hc         1 L3M       0.037033
     72 H251        -4.1700   -23.0030    40.0810 hc         1 L3M       0.037033
     73 H252        -4.0800   -21.7860    41.3500 hc         1 L3M       0.037033
     74 H271        -1.0850   -23.3120    36.1440 h1         1 L3M       0.016700
     75 H281        -0.5260   -20.9050    36.2310 ho         1 L3M       0.492000
     76 H292        -1.7220   -22.4120    38.9830 hc         1 L3M       0.043700
     77 H291        -2.4180   -23.8140    38.1880 hc         1 L3M       0.043700
     78 H301        -0.1520   -24.7940    37.8930 hc         1 L3M       0.046200
     79 H302         0.5680   -23.4060    38.6810 hc         1 L3M       0.046200
     80 H311         0.3020   -25.2980    40.2910 hc         1 L3M       0.030367
     81 H313        -0.6940   -23.9330    40.7870 hc         1 L3M       0.030367
     82 H312        -1.4340   -25.3200    39.9950 hc         1 L3M       0.030367
     83 H321        -1.8300   -18.8670    32.4180 hn         1 L3M       0.309500
     84 H331        -3.5110   -17.1310    31.2230 ha         1 L3M       0.104000
     85 H341         3.1270   -17.7100    29.9370 ha         1 L3M       0.130000
     86 H371         4.2770   -19.9730    33.4000 h1         1 L3M       0.051700
     87 H372         5.4440   -20.6670    32.2920 h1         1 L3M       0.051700
     88 H382         6.2410   -18.5740    33.3340 hc         1 L3M       0.047700
     89 H381         4.9130   -17.6830    32.6300 hc         1 L3M       0.047700
     90 H391         6.9600   -17.3770    31.2560 hc         1 L3M       0.037033
     91 H393         7.1180   -19.1190    31.0470 hc         1 L3M       0.037033
     92 H392         5.7660   -18.2620    30.3150 hc         1 L3M       0.037033
     93 H421         3.5090   -22.6560    32.0660 h1         1 L3M       0.100367
     94 H422         1.9120   -22.1100    31.4880 h1         1 L3M       0.100367
     95 H423         2.8610   -23.2660    30.5230 h1         1 L3M       0.100367
     96 H441         1.8930   -20.1230    33.2440 ha         1 L3M       0.128000
@<TRIPOS>BOND
     1     1     2 2   
     2     2     3 1   
     3     2    32 1   
     4     3     4 ar  
     5     3    44 ar  
     6     4     5 ar  
     7     4    45 1   
     8     5     6 1   
     9     5    34 ar  
    10     6     7 1   
    11     6    46 1   
    12     6    47 1   
    13     7     8 1   
    14     7    48 1   
    15     7    49 1   
    16     8     9 1   
    17     8    50 1   
    18     8    51 1   
    19     9    10 1   
    20     9    52 1   
    21     9    53 1   
    22    10    11 ar  
    23    10    33 ar  
    24    11    12 ar  
    25    11    54 1   
    26    12    13 ar  
    27    12    55 1   
    28    13    14 ar  
    29    13    56 1   
    30    14    15 1   
    31    14    33 ar  
    32    15    16 1   
    33    15    57 1   
    34    15    58 1   
    35    16    17 1   
    36    16    32 1   
    37    16    59 1   
    38    17    18 1   
    39    17    60 1   
    40    17    61 1   
    41    18    19 1   
    42    18    62 1   
    43    19    20 1   
    44    19    27 1   
    45    19    63 1   
    46    20    21 1   
    47    20    26 2   
    48    21    22 1   
    49    21    64 1   
    50    22    23 1   
    51    22    65 1   
    52    22    66 1   
    53    23    24 1   
    54    23    25 1   
    55    23    67 1   
    56    24    68 1   
    57    24    69 1   
    58    24    70 1   
    59    25    71 1   
    60    25    72 1   
    61    25    73 1   
    62    27    28 1   
    63    27    29 1   
    64    27    74 1   
    65    28    75 1   
    66    29    30 1   
    67    29    76 1   
    68    29    77 1   
    69    30    31 1   
    70    30    78 1   
    71    30    79 1   
    72    31    80 1   
    73    31    81 1   
    74    31    82 1   
    75    32    83 1   
    76    33    84 1   
    77    34    35 ar  
    78    34    85 1   
    79    35    36 1   
    80    35    44 ar  
    81    36    37 1   
    82    36    40 1   
    83    37    38 1   
    84    37    86 1   
    85    37    87 1   
    86    38    39 1   
    87    38    88 1   
    88    38    89 1   
    89    39    90 1   
    90    39    91 1   
    91    39    92 1   
    92    40    41 2   
    93    40    42 1   
    94    40    43 2   
    95    42    93 1   
    96    42    94 1   
    97    42    95 1   
    98    44    96 1   
@<TRIPOS>SUBSTRUCTURE
     1 L3M         1 TEMP              0 ****  ****    0 ROOT
