@<TRIPOS>MOLECULE
L3M
   96    98     1     0     0
SMALL
No Charge or Current Charge


@<TRIPOS>ATOM
      1 O01         -0.1230   -20.1540    34.4750 o          1 L3M      -0.577100
      2 C02         -0.4790   -19.5500    33.4730 c          1 L3M       0.615700
      3 C03          0.5160   -19.0300    32.4580 ca         1 L3M      -0.143600
      4 C04          0.2070   -17.9440    31.6050 ca         1 L3M      -0.084000
      5 C05          1.1590   -17.4440    30.6900 ca         1 L3M      -0.069300
      6 C06          0.8870   -16.2340    29.7850 c3         1 L3M      -0.030100
      7 C07         -0.1960   -15.2420    30.2840 c3         1 L3M      -0.077400
      8 C08         -1.6290   -15.5630    29.7860 c3         1 L3M      -0.073400
      9 C09         -2.7360   -14.7970    30.5480 c3         1 L3M      -0.032100
     10 C10         -2.8850   -15.2720    31.9910 ca         1 L3M      -0.078300
     11 C11         -2.4660   -14.4610    33.0630 ca         1 L3M      -0.108000
     12 C12         -2.5740   -14.9250    34.3850 ca         1 L3M      -0.103000
     13 C13         -3.0960   -16.2040    34.6440 ca         1 L3M      -0.098000
     14 C14         -3.5210   -17.0210    33.5800 ca         1 L3M      -0.076300
     15 C15         -4.0500   -18.4280    33.8460 c3         1 L3M      -0.047100
     16 C16         -2.9310   -19.4600    34.1390 c3         1 L3M       0.112700
     17 C17         -3.4880   -20.9160    34.0920 c3         1 L3M       0.170800
     18 N18         -2.5690   -21.9090    34.7000 n7         1 L3M      -0.888400
     19 C19         -2.8170   -22.2800    36.1440 c3         1 L3M       0.068500
     20 C20         -3.0910   -21.0700    37.1120 c          1 L3M       0.596100
     21 N21         -4.4030   -20.9640    37.5360 ns         1 L3M      -0.513900
     22 C22         -4.9160   -19.9260    38.4360 c3         1 L3M       0.103000
     23 C23         -5.0950   -20.4220    39.8930 c3         1 L3M      -0.078700
     24 C24         -5.7640   -19.3370    40.7650 c3         1 L3M      -0.088100
     25 C25         -3.7720   -20.9090    40.5320 c3         1 L3M      -0.088100
     26 O26         -2.2350   -20.2670    37.4630 o          1 L3M      -0.569100
     27 C27         -1.6420   -23.1790    36.6260 c3         1 L3M       0.192300
     28 O28         -0.4340   -22.5710    36.1710 oh         1 L3M      -0.655000
     29 C29         -1.5900   -23.4480    38.1540 c3         1 L3M      -0.079400
     30 C30         -0.5570   -24.5230    38.5650 c3         1 L3M      -0.070400
     31 C31         -0.5460   -24.7970    40.0810 c3         1 L3M      -0.090100
     32 N32         -1.8000   -19.2490    33.2180 ns         1 L3M      -0.496900
     33 C33         -3.4210   -16.5450    32.2590 ca         1 L3M      -0.116000
     34 C34          2.4220   -18.0640    30.6200 ca         1 L3M      -0.061000
     35 C35          2.7510   -19.1410    31.4590 ca         1 L3M       0.241000
     36 N36          4.0250   -19.7370    31.3910 nh         1 L3M      -0.788300
     37 C37          4.8830   -19.8660    32.5900 c3         1 L3M       0.226800
     38 C38          4.8510   -18.6580    33.5590 c3         1 L3M      -0.078400
     39 C39          5.3660   -17.3410    32.9400 c3         1 L3M      -0.087100
     40 S40          4.3810   -20.7540    30.0360 s6         1 L3M       1.222100
     41 O41          4.1540   -19.9560    28.8270 o          1 L3M      -0.533500
     42 C42          3.1320   -22.0240    30.1190 c3         1 L3M      -0.378100
     43 O43          5.6880   -21.3750    30.2730 o          1 L3M      -0.533500
     44 C44          1.8000   -19.6090    32.3810 ca         1 L3M      -0.088000
     45 H041        -0.7610   -17.4620    31.6850 ha         1 L3M       0.132000
     46 H061         0.6320   -16.5730    28.7730 hc         1 L3M       0.053700
     47 H062         1.8200   -15.6660    29.6760 hc         1 L3M       0.053700
     48 H072         0.0620   -14.2360    29.9300 hc         1 L3M       0.045700
     49 H071        -0.1640   -15.1890    31.3790 hc         1 L3M       0.045700
     50 H081        -1.6920   -15.3070    28.7200 hc         1 L3M       0.042700
     51 H082        -1.8240   -16.6390    29.8500 hc         1 L3M       0.042700
     52 H092        -2.5250   -13.7210    30.5090 hc         1 L3M       0.048700
     53 H091        -3.6870   -14.9390    30.0200 hc         1 L3M       0.048700
     54 H111        -2.0470   -13.4750    32.8730 ha         1 L3M       0.112000
     55 H121        -2.2440   -14.2970    35.2100 ha         1 L3M       0.116000
     56 H131        -3.1630   -16.5620    35.6690 ha         1 L3M       0.121000
     57 H152        -4.7510   -18.4150    34.6900 hc         1 L3M       0.050200
     58 H151        -4.6310   -18.7710    32.9810 hc         1 L3M       0.050200
     59 H161        -2.5680   -19.2570    35.1530 h1         1 L3M       0.111700
     60 H171        -4.4670   -20.9540    34.5880 h1         1 L3M       0.032700
     61 H172        -3.6580   -21.1720    33.0380 h1         1 L3M       0.032700
     62 H1          -2.6320   -22.7710    34.1410 hn         1 L3M       0.430000
     63 H191        -3.7220   -22.9010    36.1840 h1         1 L3M       0.020700
     64 H211        -5.0500   -21.6630    37.1910 hn         1 L3M       0.307500
     65 H221        -4.2440   -19.0580    38.4220 h1         1 L3M       0.053200
     66 H222        -5.8880   -19.5940    38.0470 h1         1 L3M       0.053200
     67 H231        -5.7790   -21.2800    39.8660 hc         1 L3M       0.040700
     68 H243        -5.9480   -19.7120    41.7800 hc         1 L3M       0.037033
     69 H242        -5.1280   -18.4470    40.8380 hc         1 L3M       0.037033
     70 H241        -6.7280   -19.0360    40.3380 hc         1 L3M       0.037033
     71 H253        -3.9340   -21.2210    41.5700 hc         1 L3M       0.037033
     72 H251        -3.3680   -21.7710    39.9890 hc         1 L3M       0.037033
     73 H252        -3.0180   -20.1130    40.5260 hc         1 L3M       0.037033
     74 H271        -1.7580   -24.1490    36.1230 h1         1 L3M       0.016700
     75 H281        -0.7640   -21.9270    35.4860 ho         1 L3M       0.492000
     76 H292        -1.3590   -22.5190    38.6890 hc         1 L3M       0.043700
     77 H291        -2.5840   -23.7710    38.4870 hc         1 L3M       0.043700
     78 H301        -0.7750   -25.4590    38.0350 hc         1 L3M       0.046200
     79 H302         0.4470   -24.2070    38.2550 hc         1 L3M       0.046200
     80 H311         0.1990   -25.5630    40.3260 hc         1 L3M       0.030367
     81 H313        -0.2970   -23.8860    40.6380 hc         1 L3M       0.030367
     82 H312        -1.5270   -25.1520    40.4190 hc         1 L3M       0.030367
     83 H321        -1.9860   -18.7560    32.3560 hn         1 L3M       0.309500
     84 H331        -3.7440   -17.1740    31.4320 ha         1 L3M       0.104000
     85 H341         3.1670   -17.6900    29.9240 ha         1 L3M       0.130000
     86 H371         4.5910   -20.7670    33.1460 h1         1 L3M       0.051700
     87 H372         5.9320   -19.9990    32.2920 h1         1 L3M       0.051700
     88 H382         5.4740   -18.9000    34.4280 hc         1 L3M       0.047700
     89 H381         3.8350   -18.5100    33.9410 hc         1 L3M       0.047700
     90 H391         5.3590   -16.5400    33.6890 hc         1 L3M       0.037033
     91 H393         6.3930   -17.4600    32.5740 hc         1 L3M       0.037033
     92 H392         4.7350   -17.0270    32.1010 hc         1 L3M       0.037033
     93 H421         3.2320   -22.5170    31.0910 h1         1 L3M       0.100367
     94 H422         2.1580   -21.5380    30.0160 h1         1 L3M       0.100367
     95 H423         3.3190   -22.7220    29.2970 h1         1 L3M       0.100367
     96 H441         2.0580   -20.4390    33.0320 ha         1 L3M       0.128000
@<TRIPOS>BOND
     1     1     2 2   
     2     2     3 1   
     3     2    32 1   
     4     3     4 ar  
     5     3    44 ar  
     6     4     5 ar  
     7     4    45 1   
     8     5     6 1   
     9     5    34 ar  
    10     6     7 1   
    11     6    46 1   
    12     6    47 1   
    13     7     8 1   
    14     7    48 1   
    15     7    49 1   
    16     8     9 1   
    17     8    50 1   
    18     8    51 1   
    19     9    10 1   
    20     9    52 1   
    21     9    53 1   
    22    10    11 ar  
    23    10    33 ar  
    24    11    12 ar  
    25    11    54 1   
    26    12    13 ar  
    27    12    55 1   
    28    13    14 ar  
    29    13    56 1   
    30    14    15 1   
    31    14    33 ar  
    32    15    16 1   
    33    15    57 1   
    34    15    58 1   
    35    16    17 1   
    36    16    32 1   
    37    16    59 1   
    38    17    18 1   
    39    17    60 1   
    40    17    61 1   
    41    18    19 1   
    42    18    62 1   
    43    19    20 1   
    44    19    27 1   
    45    19    63 1   
    46    20    21 1   
    47    20    26 2   
    48    21    22 1   
    49    21    64 1   
    50    22    23 1   
    51    22    65 1   
    52    22    66 1   
    53    23    24 1   
    54    23    25 1   
    55    23    67 1   
    56    24    68 1   
    57    24    69 1   
    58    24    70 1   
    59    25    71 1   
    60    25    72 1   
    61    25    73 1   
    62    27    28 1   
    63    27    29 1   
    64    27    74 1   
    65    28    75 1   
    66    29    30 1   
    67    29    76 1   
    68    29    77 1   
    69    30    31 1   
    70    30    78 1   
    71    30    79 1   
    72    31    80 1   
    73    31    81 1   
    74    31    82 1   
    75    32    83 1   
    76    33    84 1   
    77    34    35 ar  
    78    34    85 1   
    79    35    36 1   
    80    35    44 ar  
    81    36    37 1   
    82    36    40 1   
    83    37    38 1   
    84    37    86 1   
    85    37    87 1   
    86    38    39 1   
    87    38    88 1   
    88    38    89 1   
    89    39    90 1   
    90    39    91 1   
    91    39    92 1   
    92    40    41 2   
    93    40    42 1   
    94    40    43 2   
    95    42    93 1   
    96    42    94 1   
    97    42    95 1   
    98    44    96 1   
@<TRIPOS>SUBSTRUCTURE
     1 L3M         1 TEMP              0 ****  ****    0 ROOT
