@<TRIPOS>MOLECULE
L3N
   18    19     1     0     0
SMALL
abcg2


@<TRIPOS>ATOM
      1 CAC         -2.7720   -10.2660    17.5170 ca         1 L3N      -0.041000
      2 CAD         -1.3980   -10.5080    17.4630 ca         1 L3N      -0.156000
      3 CAE         -3.5920   -10.5790    16.4520 ca         1 L3N      -0.176000
      4 CAF         -0.8530   -11.0660    16.3270 ca         1 L3N      -0.013000
      5 CAI         -3.0390   -11.1450    15.3020 ca         1 L3N       0.121600
      6 CAJ         -1.6660   -11.3890    15.2400 ca         1 L3N      -0.218600
      7 CAK         -3.3800   -12.0160    13.0660 c          1 L3N       0.627000
      8 CAL         -1.0980   -11.9800    14.0270 c          1 L3N       0.599600
      9 NAG         -3.8340   -11.4650    14.2250 ns         1 L3N      -0.512600
     10 NAH         -2.0200   -12.2430    13.0370 ns         1 L3N      -0.473500
     11 OAA         -4.0990   -12.2890    12.1290 o          1 L3N      -0.551000
     12 OAB          0.0790   -12.2300    13.8670 o          1 L3N      -0.522000
     13 H1          -3.2070    -9.8280    18.4060 ha         1 L3N       0.120000
     14 H2          -0.7680   -10.2590    18.3050 ha         1 L3N       0.126000
     15 H3          -4.6570   -10.3870    16.5010 ha         1 L3N       0.123000
     16 H4           0.2100   -11.2590    16.2660 ha         1 L3N       0.140000
     17 H5          -4.8280   -11.2870    14.2780 hn         1 L3N       0.461000
     18 H6          -1.6650   -12.6530    12.1810 hn         1 L3N       0.345500
@<TRIPOS>BOND
     1     1     2 ar  
     2     1     3 ar  
     3     1    13 1   
     4     2     4 ar  
     5     2    14 1   
     6     3     5 ar  
     7     3    15 1   
     8     4     6 ar  
     9     4    16 1   
    10     5     6 ar  
    11     5     9 1   
    12     6     8 1   
    13     7     9 1   
    14     7    10 1   
    15     7    11 2   
    16     8    10 1   
    17     8    12 2   
    18     9    17 1   
    19    10    18 1   
@<TRIPOS>SUBSTRUCTURE
     1 L3N         1 TEMP              0 ****  ****    0 ROOT
