@<TRIPOS>MOLECULE
L3N
   18    19     1     0     0
SMALL
No Charge or Current Charge


@<TRIPOS>ATOM
      1 CAC         -2.7820   -10.2480    17.5590 ca         1 L3N      -0.041000
      2 CAD         -1.3990   -10.4950    17.4930 ca         1 L3N      -0.156000
      3 CAE         -3.6040   -10.5710    16.4650 ca         1 L3N      -0.176000
      4 CAF         -0.8340   -11.0640    16.3370 ca         1 L3N      -0.013000
      5 CAI         -3.0370   -11.1380    15.3150 ca         1 L3N       0.121600
      6 CAJ         -1.6600   -11.3870    15.2410 ca         1 L3N      -0.218600
      7 CAK         -3.3720   -12.0290    13.0380 c          1 L3N       0.627000
      8 CAL         -1.1130   -11.9950    13.9830 c          1 L3N       0.599600
      9 NAG         -3.8140   -11.4770    14.2010 ns         1 L3N      -0.512600
     10 NAH         -2.0320   -12.2540    13.0070 ns         1 L3N      -0.473500
     11 OAA         -4.1110   -12.2960    12.1120 o          1 L3N      -0.551000
     12 OAB          0.0700   -12.2490    13.8230 o          1 L3N      -0.522000
     13 H1          -3.2160    -9.8080    18.4560 ha         1 L3N       0.120000
     14 H2          -0.7630   -10.2450    18.3400 ha         1 L3N       0.126000
     15 H3          -4.6730   -10.3810    16.5170 ha         1 L3N       0.123000
     16 H4           0.2380   -11.2510    16.2960 ha         1 L3N       0.140000
     17 H5          -4.8110   -11.3000    14.2460 hn         1 L3N       0.461000
     18 H6          -1.6730   -12.6620    12.1590 hn         1 L3N       0.345500
@<TRIPOS>BOND
     1     1     2 ar  
     2     1     3 ar  
     3     1    13 1   
     4     2     4 ar  
     5     2    14 1   
     6     3     5 ar  
     7     3    15 1   
     8     4     6 ar  
     9     4    16 1   
    10     5     6 ar  
    11     5     9 1   
    12     6     8 1   
    13     7     9 1   
    14     7    10 1   
    15     7    11 2   
    16     8    10 1   
    17     8    12 2   
    18     9    17 1   
    19    10    18 1   
@<TRIPOS>SUBSTRUCTURE
     1 L3N         1 TEMP              0 ****  ****    0 ROOT
