@<TRIPOS>MOLECULE
L3O
   25    24     1     0     0
SMALL
No Charge or Current Charge


@<TRIPOS>ATOM
      1 CZ          -1.2120    -0.3980     0.6480 c3         1 L3O       0.026300
      2 OZ          -1.1170    -1.8540     0.6740 oh         1 L3O      -0.706000
      3 CA           0.0420     0.2310    -0.0470 c3         1 L3O       0.145500
      4 CB           1.3940    -0.2500     0.5630 c3         1 L3O      -0.112400
      5 CG           2.6920     0.2880    -0.1130 c3         1 L3O      -0.062700
      6 CD1          3.9470    -0.1850     0.6570 c3         1 L3O      -0.083600
      7 CD2          2.7930    -0.0970    -1.6090 c3         1 L3O      -0.083600
      8 N           -0.0100     1.7080     0.0000 n8         1 L3O      -0.961200
      9 C           -2.5420     0.0800    -0.0460 c          1 L3O       0.711000
     10 O           -2.8440    -0.4430    -1.1140 o          1 L3O      -0.725000
     11 OXT         -3.3210     0.7760     0.5930 o          1 L3O      -0.725000
     12 HZ          -1.2380    -0.0270     1.6820 h1         1 L3O       0.035700
     13 HA          -1.5440    -2.1680    -0.1580 ho         1 L3O       0.468000
     14 HB           0.0130    -0.0690    -1.1040 h1         1 L3O       0.062700
     15 HB1C         1.4100     0.0170     1.6270 hc         1 L3O       0.041200
     16 HB2C         1.4320    -1.3450     0.5270 hc         1 L3O       0.041200
     17 HN1          0.0730     2.0090     0.9760 hn         1 L3O       0.372500
     18 HN2          0.8390     2.0760    -0.4390 hn         1 L3O       0.372500
     19 HG           2.6870     1.3830    -0.0550 hc         1 L3O       0.030700
     20 HD11         4.8570     0.2370     0.2130 hc         1 L3O       0.025700
     21 HD12         3.9040     0.1350     1.7050 hc         1 L3O       0.025700
     22 HD13         4.0310    -1.2790     0.6350 hc         1 L3O       0.025700
     23 HD21         1.9770     0.3480    -2.1890 hc         1 L3O       0.025700
     24 HD22         3.7360     0.2630    -2.0370 hc         1 L3O       0.025700
     25 HD23         2.7540    -1.1860    -1.7350 hc         1 L3O       0.025700
@<TRIPOS>BOND
     1     1     2 1   
     2     1     3 1   
     3     1     9 1   
     4     1    12 1   
     5     2    13 1   
     6     3     4 1   
     7     3     8 1   
     8     3    14 1   
     9     4     5 1   
    10     4    15 1   
    11     4    16 1   
    12     5     6 1   
    13     5     7 1   
    14     5    19 1   
    15     6    20 1   
    16     6    21 1   
    17     6    22 1   
    18     7    23 1   
    19     7    24 1   
    20     7    25 1   
    21     8    17 1   
    22     8    18 1   
    23     9    10 1   
    24     9    11 1   
@<TRIPOS>SUBSTRUCTURE
     1 L3O         1 TEMP              0 ****  ****    0 ROOT
