@<TRIPOS>MOLECULE
L3O
   25    24     1     0     0
SMALL
abcg2


@<TRIPOS>ATOM
      1 CZ          -1.1150    -0.4310     0.6370 c3         1 L3O       0.026300
      2 OZ          -1.0460    -1.8340     0.5010 oh         1 L3O      -0.706000
      3 CA           0.0760     0.2300    -0.0790 c3         1 L3O       0.145500
      4 CB           1.3940    -0.2560     0.5380 c3         1 L3O      -0.112400
      5 CG           2.6720     0.2940    -0.0990 c3         1 L3O      -0.062700
      6 CD1          3.8930    -0.1880     0.6800 c3         1 L3O      -0.083600
      7 CD2          2.7920    -0.0880    -1.5710 c3         1 L3O      -0.083600
      8 N           -0.0880     1.6770    -0.0810 n8         1 L3O      -0.961200
      9 C           -2.4610     0.0610     0.0660 c          1 L3O       0.711000
     10 O           -2.8920    -0.6280    -0.8900 o          1 L3O      -0.725000
     11 OXT         -3.0040     1.0500     0.5800 o          1 L3O      -0.725000
     12 HZ          -1.0570    -0.1860     1.7060 h1         1 L3O       0.035700
     13 HA          -1.6320    -2.0060    -0.2540 ho         1 L3O       0.468000
     14 HB           0.0300    -0.0980    -1.1250 h1         1 L3O       0.062700
     15 HB1C         1.3920     0.0090     1.6040 hc         1 L3O       0.041200
     16 HB2C         1.4320    -1.3490     0.4950 hc         1 L3O       0.041200
     17 HN1         -0.1390     2.0170     0.8730 hn         1 L3O       0.372500
     18 HN2          0.7350     2.1120    -0.4810 hn         1 L3O       0.372500
     19 HG           2.6580     1.3890    -0.0280 hc         1 L3O       0.030700
     20 HD11         4.8140     0.2410     0.2810 hc         1 L3O       0.025700
     21 HD12         3.8270     0.0880     1.7340 hc         1 L3O       0.025700
     22 HD13         3.9850    -1.2760     0.6280 hc         1 L3O       0.025700
     23 HD21         1.9830     0.3240    -2.1750 hc         1 L3O       0.025700
     24 HD22         3.7310     0.2720    -1.9970 hc         1 L3O       0.025700
     25 HD23         2.7720    -1.1750    -1.6900 hc         1 L3O       0.025700
@<TRIPOS>BOND
     1     1     2 1   
     2     1     3 1   
     3     1     9 1   
     4     1    12 1   
     5     2    13 1   
     6     3     4 1   
     7     3     8 1   
     8     3    14 1   
     9     4     5 1   
    10     4    15 1   
    11     4    16 1   
    12     5     6 1   
    13     5     7 1   
    14     5    19 1   
    15     6    20 1   
    16     6    21 1   
    17     6    22 1   
    18     7    23 1   
    19     7    24 1   
    20     7    25 1   
    21     8    17 1   
    22     8    18 1   
    23     9    10 1   
    24     9    11 1   
@<TRIPOS>SUBSTRUCTURE
     1 L3O         1 TEMP              0 ****  ****    0 ROOT
