@<TRIPOS>MOLECULE
L3Q
   20    21     1     0     0
SMALL
No Charge or Current Charge


@<TRIPOS>ATOM
      1 C4         -16.3360    -8.9050   105.3630 c6         1 L3Q       0.121800
      2 C5         -14.8350    -9.2340   105.1060 c6         1 L3Q       0.072000
      3 N1         -14.6740   -10.6690   104.7740 n          1 L3Q      -0.425800
      4 N          -16.9850    -9.8940   106.2800 n7         1 L3Q      -0.848400
      5 C          -14.2710   -11.1420   103.5340 c          1 L3Q       0.691100
      6 O          -13.8560   -10.4630   102.6090 o          1 L3Q      -0.528000
      7 C1         -15.0720   -12.9410   104.7360 c5         1 L3Q       0.153600
      8 C2         -15.3490   -11.6730   105.6000 c5         1 L3Q       0.018700
      9 C3         -16.8480   -11.2960   105.7820 c6         1 L3Q       0.134800
     10 O1         -14.6010   -12.4620   103.4480 os         1 L3Q      -0.415100
     11 H1         -16.4230    -7.8900   105.7790 h1         1 L3Q       0.066700
     12 H2         -16.8660    -8.9070   104.3980 h1         1 L3Q       0.066700
     13 H3         -14.2510    -9.0100   106.0100 h1         1 L3Q       0.068700
     14 H4         -14.4500    -8.5980   104.2960 h1         1 L3Q       0.068700
     15 H5         -16.5250    -9.8330   107.1980 hn         1 L3Q       0.411000
     16 H7         -15.9600   -13.5730   104.6010 h1         1 L3Q       0.068700
     17 H8         -14.2790   -13.5520   105.1880 h1         1 L3Q       0.068700
     18 H9         -14.8770   -11.7570   106.5880 h1         1 L3Q       0.075700
     19 H10        -17.3700   -11.3900   104.8160 h1         1 L3Q       0.065700
     20 H11        -17.3270   -11.9960   106.4830 h1         1 L3Q       0.065700
@<TRIPOS>BOND
     1     1     2 1   
     2     1     4 1   
     3     1    11 1   
     4     1    12 1   
     5     2     3 1   
     6     2    13 1   
     7     2    14 1   
     8     3     5 1   
     9     3     8 1   
    10     4     9 1   
    11     4    15 1   
    12     5     6 2   
    13     5    10 1   
    14     7     8 1   
    15     7    10 1   
    16     7    16 1   
    17     7    17 1   
    18     8     9 1   
    19     8    18 1   
    20     9    19 1   
    21     9    20 1   
@<TRIPOS>SUBSTRUCTURE
     1 L3Q         1 TEMP              0 ****  ****    0 ROOT
