@<TRIPOS>MOLECULE
L3Q
   20    21     1     0     0
SMALL
bcc


@<TRIPOS>ATOM
      1 C4         -16.2920    -8.9560   105.3400 c6         1 L3Q       0.121800
      2 C5         -14.8080    -9.2650   105.1540 c6         1 L3Q       0.072000
      3 N1         -14.6430   -10.6580   104.7990 n          1 L3Q      -0.492800
      4 N          -16.9800    -9.9080   106.1970 n7         1 L3Q      -0.793200
      5 C          -14.4270   -11.0960   103.5410 c          1 L3Q       0.833600
      6 O          -14.0460   -10.4680   102.5810 o          1 L3Q      -0.603500
      7 C1         -15.0570   -12.9090   104.7630 c5         1 L3Q       0.130400
      8 C2         -15.3240   -11.6570   105.5980 c5         1 L3Q       0.018700
      9 C3         -16.7970   -11.2780   105.7530 c6         1 L3Q       0.134800
     10 O1         -14.6860   -12.4140   103.4730 os         1 L3Q      -0.391900
     11 H1         -16.4080    -7.9540   105.7550 h1         1 L3Q       0.066700
     12 H2         -16.7840    -8.9570   104.3620 h1         1 L3Q       0.066700
     13 H3         -14.2640    -9.0750   106.0840 h1         1 L3Q       0.068700
     14 H4         -14.3650    -8.6420   104.3790 h1         1 L3Q       0.068700
     15 H5         -16.6550    -9.8090   107.1520 hn         1 L3Q       0.355800
     16 H7         -15.9360   -13.5460   104.6590 h1         1 L3Q       0.068700
     17 H8         -14.2370   -13.5030   105.1660 h1         1 L3Q       0.068700
     18 H9         -14.8590   -11.7340   106.5850 h1         1 L3Q       0.075700
     19 H10        -17.3060   -11.4020   104.7900 h1         1 L3Q       0.065700
     20 H11        -17.2800   -11.9550   106.4590 h1         1 L3Q       0.065700
@<TRIPOS>BOND
     1     1     2 1   
     2     1     4 1   
     3     1    11 1   
     4     1    12 1   
     5     2     3 1   
     6     2    13 1   
     7     2    14 1   
     8     3     5 1   
     9     3     8 1   
    10     4     9 1   
    11     4    15 1   
    12     5     6 2   
    13     5    10 1   
    14     7     8 1   
    15     7    10 1   
    16     7    16 1   
    17     7    17 1   
    18     8     9 1   
    19     8    18 1   
    20     9    19 1   
    21     9    20 1   
@<TRIPOS>SUBSTRUCTURE
     1 L3Q         1 TEMP              0 ****  ****    0 ROOT
