@<TRIPOS>MOLECULE
L3R
   56    59     1     0     0
SMALL
No Charge or Current Charge


@<TRIPOS>ATOM
      1 C7          62.6400    59.1280    69.4790 ca         1 L3R      -0.090300
      2 C8          63.9780    59.5290    69.7180 ca         1 L3R      -0.050300
      3 C9          61.6770    61.4080    66.5170 c6         1 L3R       0.189600
      4 O1          60.4740    61.9710    67.0910 os         1 L3R      -0.430000
      5 C1          61.5140    58.5690    71.6730 cc         1 L3R      -0.198300
      6 C5          62.4830    60.7470    67.6430 ca         1 L3R      -0.093300
      7 C6          61.9060    59.7430    68.4440 ca         1 L3R      -0.081000
      8 C4          63.8120    61.1390    67.8850 ca         1 L3R      -0.087000
      9 O4          62.4670    59.8280    64.7520 oh         1 L3R      -0.722000
     10 C3          64.5510    60.5340    68.9130 ca         1 L3R      -0.115000
     11 O3          60.0370    60.2270    63.2860 oh         1 L3R      -0.648000
     12 C2          61.7810    58.0330    72.9110 cd         1 L3R      -0.137000
     13 S1          60.5300    60.0280    71.8130 ss         1 L3R       0.221000
     14 C10         61.9570    58.0540    70.3280 c3         1 L3R       0.041200
     15 C11         64.8140    58.9060    70.8330 c3         1 L3R      -0.051800
     16 C12         60.4300    61.1420    64.3230 c6         1 L3R       0.177300
     17 C13         61.2990    60.4040    65.3800 c6         1 L3R       0.099300
     18 C14         59.1830    61.7890    64.9960 c6         1 L3R       0.145300
     19 C15         59.6530    62.7220    66.1560 c6         1 L3R       0.132300
     20 C16         58.4530    63.3450    66.9430 c3         1 L3R       0.171600
     21 O2          58.4050    62.4990    64.0130 oh         1 L3R      -0.700000
     22 C17         60.5300    59.8800    73.5680 cc         1 L3R      -0.159000
     23 C18         61.2210    58.7710    73.9890 cd         1 L3R      -0.124000
     24 C19         59.8520    60.7800    74.5060 ca         1 L3R      -0.019000
     25 C20         58.6940    61.4770    74.0990 ca         1 L3R      -0.074500
     26 C21         58.0350    62.3480    74.9850 ca         1 L3R      -0.150500
     27 C22         58.5330    62.5310    76.2830 ca         1 L3R       0.172000
     28 C23         59.6860    61.8520    76.7000 ca         1 L3R      -0.150500
     29 C24         60.3450    60.9800    75.8150 ca         1 L3R      -0.074500
     30 F1          57.9000    63.3690    77.1340 f          1 L3R      -0.178000
     31 H1          62.2700    62.2300    66.0880 h1         1 L3R       0.057700
     32 H3          58.0430    64.4700    68.5050 ho         1 L3R       0.503000
     33 H4          60.8750    59.4470    68.2670 ha         1 L3R       0.119000
     34 H5          64.2740    61.9140    67.2770 ha         1 L3R       0.118000
     35 H6          63.0030    59.4100    65.4670 ho         1 L3R       0.518000
     36 H7          65.5760    60.8530    69.0860 ha         1 L3R       0.115000
     37 H8          60.8290    59.6540    63.1550 ho         1 L3R       0.459000
     38 H9          62.3650    57.1280    73.0530 ha         1 L3R       0.131000
     39 H11         61.0820    57.6550    69.7990 hc         1 L3R       0.058200
     40 H12         62.6240    57.1940    70.4590 hc         1 L3R       0.058200
     41 H13         64.3510    59.0710    71.8130 hc         1 L3R       0.045367
     42 H14         64.9280    57.8260    70.6870 hc         1 L3R       0.045367
     43 H15         65.8220    59.3350    70.8740 hc         1 L3R       0.045367
     44 H16         61.0410    61.9490    63.8890 h1         1 L3R       0.056700
     45 H17         60.6880    59.6040    65.8250 h1         1 L3R       0.051700
     46 H18         58.5750    60.9830    65.4350 h1         1 L3R       0.049700
     47 H19         60.2520    63.5450    65.7410 h1         1 L3R       0.064700
     48 H20         57.8480    63.9360    66.2410 h1         1 L3R       0.024200
     49 H21         57.8190    62.5250    67.3070 h1         1 L3R       0.024200
     50 H22         58.4010    61.9140    63.2180 ho         1 L3R       0.506000
     51 H25         61.3280    58.4720    75.0270 ha         1 L3R       0.133000
     52 H26         58.2950    61.3390    73.0970 ha         1 L3R       0.120000
     53 H27         57.1420    62.8790    74.6680 ha         1 L3R       0.132000
     54 H28         60.0700    62.0030    77.7060 ha         1 L3R       0.132000
     55 H29         61.2470    60.4720    76.1480 ha         1 L3R       0.120000
     56 O5          58.8640    64.1760    68.0460 oh         1 L3R      -0.702000
@<TRIPOS>BOND
     1     1     2 ar  
     2     1     7 ar  
     3     1    14 1   
     4     2    10 ar  
     5     2    15 1   
     6     3     4 1   
     7     3     6 1   
     8     3    17 1   
     9     3    31 1   
    10     4    19 1   
    11     5    12 2   
    12     5    13 1   
    13     5    14 1   
    14     6     7 ar  
    15     6     8 ar  
    16     7    33 1   
    17     8    10 ar  
    18     8    34 1   
    19     9    17 1   
    20     9    35 1   
    21    10    36 1   
    22    11    16 1   
    23    11    37 1   
    24    12    23 1   
    25    12    38 1   
    26    13    22 1   
    27    14    39 1   
    28    14    40 1   
    29    15    41 1   
    30    15    42 1   
    31    15    43 1   
    32    16    17 1   
    33    16    18 1   
    34    16    44 1   
    35    17    45 1   
    36    18    19 1   
    37    18    21 1   
    38    18    46 1   
    39    19    20 1   
    40    19    47 1   
    41    20    48 1   
    42    20    49 1   
    43    20    56 1   
    44    21    50 1   
    45    22    23 2   
    46    22    24 1   
    47    23    51 1   
    48    24    25 ar  
    49    24    29 ar  
    50    25    26 ar  
    51    25    52 1   
    52    26    27 ar  
    53    26    53 1   
    54    27    28 ar  
    55    27    30 1   
    56    28    29 ar  
    57    28    54 1   
    58    29    55 1   
    59    32    56 1   
@<TRIPOS>SUBSTRUCTURE
     1 L3R         1 TEMP              0 ****  ****    0 ROOT
