@<TRIPOS>MOLECULE
L3R
   56    59     1     0     0
SMALL
abcg2


@<TRIPOS>ATOM
      1 C7          62.6410    59.1340    69.4780 ca         1 L3R      -0.090300
      2 C8          64.0110    59.3970    69.6230 ca         1 L3R      -0.050300
      3 C9          61.6960    61.4460    66.6090 c6         1 L3R       0.189600
      4 O1          60.5000    61.9330    67.1690 os         1 L3R      -0.430000
      5 C1          61.5850    58.6540    71.7080 cc         1 L3R      -0.198300
      6 C5          62.4970    60.7660    67.6830 ca         1 L3R      -0.093300
      7 C6          61.9090    59.8160    68.5150 ca         1 L3R      -0.081000
      8 C4          63.8520    61.0220    67.8290 ca         1 L3R      -0.087000
      9 O4          62.5370    60.0300    64.8220 oh         1 L3R      -0.722000
     10 C3          64.5940    60.3420    68.7850 ca         1 L3R      -0.115000
     11 O3          60.0730    60.2570    63.4370 oh         1 L3R      -0.648000
     12 C2          62.0130    58.2240    72.9280 cd         1 L3R      -0.137000
     13 S1          60.4770    59.9640    71.8840 ss         1 L3R       0.221000
     14 C10         61.9400    58.1230    70.3530 c3         1 L3R       0.041200
     15 C11         64.8460    58.6820    70.6440 c3         1 L3R      -0.051800
     16 C12         60.5000    61.1610    64.4240 c6         1 L3R       0.177300
     17 C13         61.3700    60.4750    65.4690 c6         1 L3R       0.099300
     18 C14         59.2720    61.7670    65.0870 c6         1 L3R       0.145300
     19 C15         59.7100    62.6640    66.2550 c6         1 L3R       0.132300
     20 C16         58.5270    63.2190    67.0200 c3         1 L3R       0.171600
     21 O2          58.5710    62.5020    64.1120 oh         1 L3R      -0.700000
     22 C17         60.5750    59.9190    73.6110 cc         1 L3R      -0.159000
     23 C18         61.4420    58.9420    74.0110 cd         1 L3R      -0.124000
     24 C19         59.7850    60.8250    74.4440 ca         1 L3R      -0.019000
     25 C20         58.5420    61.3040    74.0230 ca         1 L3R      -0.074500
     26 C21         57.7820    62.1360    74.8290 ca         1 L3R      -0.150500
     27 C22         58.2700    62.4830    76.0740 ca         1 L3R       0.172000
     28 C23         59.4960    62.0340    76.5260 ca         1 L3R      -0.150500
     29 C24         60.2500    61.2130    75.7030 ca         1 L3R      -0.074500
     30 F1          57.5310    63.2770    76.8640 f          1 L3R      -0.178000
     31 H1          62.2890    62.2770    66.1930 h1         1 L3R       0.057700
     32 H3          58.2320    64.4900    68.4480 ho         1 L3R       0.503000
     33 H4          60.8530    59.5880    68.4070 ha         1 L3R       0.119000
     34 H5          64.3360    61.7560    67.1950 ha         1 L3R       0.118000
     35 H6          62.9520    59.3520    65.3630 ho         1 L3R       0.518000
     36 H7          65.6530    60.5510    68.8820 ha         1 L3R       0.115000
     37 H8          60.8570    59.8550    63.0490 ho         1 L3R       0.459000
     38 H9          62.7090    57.4050    73.0480 ha         1 L3R       0.131000
     39 H11         61.0340    57.7820    69.8450 hc         1 L3R       0.058200
     40 H12         62.5620    57.2370    70.4960 hc         1 L3R       0.058200
     41 H13         64.5150    58.9040    71.6610 hc         1 L3R       0.045367
     42 H14         64.7930    57.5980    70.5250 hc         1 L3R       0.045367
     43 H15         65.8920    58.9720    70.5650 hc         1 L3R       0.045367
     44 H16         61.0880    61.9840    63.9810 h1         1 L3R       0.056700
     45 H17         60.7990    59.6330    65.8860 h1         1 L3R       0.051700
     46 H18         58.6560    60.9490    65.4890 h1         1 L3R       0.049700
     47 H19         60.2940    63.5040    65.8420 h1         1 L3R       0.064700
     48 H20         57.8580    63.7210    66.3110 h1         1 L3R       0.024200
     49 H21         57.9640    62.3840    67.4590 h1         1 L3R       0.024200
     50 H22         57.6370    62.5140    64.3380 ho         1 L3R       0.506000
     51 H25         61.6480    58.7210    75.0490 ha         1 L3R       0.133000
     52 H26         58.1420    61.0130    73.0600 ha         1 L3R       0.120000
     53 H27         56.8170    62.4960    74.4960 ha         1 L3R       0.132000
     54 H28         59.8650    62.3280    77.5000 ha         1 L3R       0.132000
     55 H29         61.2200    60.8790    76.0480 ha         1 L3R       0.120000
     56 O5          58.9950    64.1130    68.0010 oh         1 L3R      -0.702000
@<TRIPOS>BOND
     1     1     2 ar  
     2     1     7 ar  
     3     1    14 1   
     4     2    10 ar  
     5     2    15 1   
     6     3     4 1   
     7     3     6 1   
     8     3    17 1   
     9     3    31 1   
    10     4    19 1   
    11     5    12 2   
    12     5    13 1   
    13     5    14 1   
    14     6     7 ar  
    15     6     8 ar  
    16     7    33 1   
    17     8    10 ar  
    18     8    34 1   
    19     9    17 1   
    20     9    35 1   
    21    10    36 1   
    22    11    16 1   
    23    11    37 1   
    24    12    23 1   
    25    12    38 1   
    26    13    22 1   
    27    14    39 1   
    28    14    40 1   
    29    15    41 1   
    30    15    42 1   
    31    15    43 1   
    32    16    17 1   
    33    16    18 1   
    34    16    44 1   
    35    17    45 1   
    36    18    19 1   
    37    18    21 1   
    38    18    46 1   
    39    19    20 1   
    40    19    47 1   
    41    20    48 1   
    42    20    49 1   
    43    20    56 1   
    44    21    50 1   
    45    22    23 2   
    46    22    24 1   
    47    23    51 1   
    48    24    25 ar  
    49    24    29 ar  
    50    25    26 ar  
    51    25    52 1   
    52    26    27 ar  
    53    26    53 1   
    54    27    28 ar  
    55    27    30 1   
    56    28    29 ar  
    57    28    54 1   
    58    29    55 1   
    59    32    56 1   
@<TRIPOS>SUBSTRUCTURE
     1 L3R         1 TEMP              0 ****  ****    0 ROOT
