@<TRIPOS>MOLECULE
L3S
   18    18     1     0     0
SMALL
No Charge or Current Charge


@<TRIPOS>ATOM
      1 C02         17.5340    19.8770     1.5270 ca         1 L3S       0.247100
      2 C03         18.5400    19.9610     2.5010 ca         1 L3S      -0.184000
      3 C04         18.6000    21.0490     3.3850 ca         1 L3S       0.022700
      4 C05         19.6970    21.1300     4.4340 c3         1 L3S      -0.061800
      5 C06         17.6380    22.0660     3.2830 ca         1 L3S      -0.171000
      6 C07         16.6250    21.9950     2.3130 ca         1 L3S      -0.003000
      7 C08         16.5570    20.8980     1.4190 ca         1 L3S      -0.308200
      8 N09         15.4590    20.8610     0.3980 no         1 L3S       0.707200
      9 O01         17.5440    18.7890     0.7080 oh         1 L3S      -0.521100
     10 O10         14.6490    21.7950     0.3760 o          1 L3S      -0.415000
     11 O11         15.4080    19.8990    -0.3790 o          1 L3S      -0.415000
     12 H031        19.2820    19.1700     2.5670 ha         1 L3S       0.141000
     13 H052        20.5800    21.6440     4.0360 hc         1 L3S       0.054700
     14 H051        19.3620    21.6780     5.3230 hc         1 L3S       0.054700
     15 H053        20.0100    20.1320     4.7630 hc         1 L3S       0.054700
     16 H061        17.6730    22.9180     3.9590 ha         1 L3S       0.129000
     17 H071        15.8960    22.8040     2.2670 ha         1 L3S       0.148000
     18 H011        16.7810    18.8860     0.0910 ho         1 L3S       0.519000
@<TRIPOS>BOND
     1     1     2 ar  
     2     1     7 ar  
     3     1     9 1   
     4     2     3 ar  
     5     2    12 1   
     6     3     4 1   
     7     3     5 ar  
     8     4    13 1   
     9     4    14 1   
    10     4    15 1   
    11     5     6 ar  
    12     5    16 1   
    13     6     7 ar  
    14     6    17 1   
    15     7     8 1   
    16     8    10 1   
    17     8    11 1   
    18     9    18 1   
@<TRIPOS>SUBSTRUCTURE
     1 L3S         1 TEMP              0 ****  ****    0 ROOT
