@<TRIPOS>MOLECULE
L3S
   18    18     1     0     0
SMALL
bcc


@<TRIPOS>ATOM
      1 C02         17.5010    19.8570     1.5360 ca         1 L3S       0.247100
      2 C03         18.4960    19.9520     2.5150 ca         1 L3S      -0.202000
      3 C04         18.5820    21.0360     3.3660 ca         1 L3S       0.022700
      4 C05         19.6630    21.1220     4.3960 c3         1 L3S      -0.061800
      5 C06         17.6440    22.0750     3.2470 ca         1 L3S      -0.189000
      6 C07         16.6600    22.0140     2.2950 ca         1 L3S      -0.021000
      7 C08         16.5760    20.9140     1.4340 ca         1 L3S      -0.308200
      8 N09         15.5330    20.8900     0.4570 no         1 L3S       0.327200
      9 O01         17.5050    18.7710     0.7760 oh         1 L3S      -0.482100
     10 O10         14.7620    21.8150     0.3900 o          1 L3S      -0.225000
     11 O11         15.4560    19.9210    -0.2890 o          1 L3S      -0.225000
     12 H031        19.2090    19.1400     2.5860 ha         1 L3S       0.159000
     13 H052        20.3770    21.9060     4.1380 hc         1 L3S       0.054700
     14 H051        19.2520    21.3780     5.3720 hc         1 L3S       0.054700
     15 H053        20.2140    20.1880     4.4890 hc         1 L3S       0.054700
     16 H061        17.6950    22.9290     3.9090 ha         1 L3S       0.147000
     17 H071        15.9440    22.8190     2.2100 ha         1 L3S       0.166000
     18 H011        16.7650    18.8260     0.1430 ho         1 L3S       0.480000
@<TRIPOS>BOND
     1     1     2 ar  
     2     1     7 ar  
     3     1     9 1   
     4     2     3 ar  
     5     2    12 1   
     6     3     4 1   
     7     3     5 ar  
     8     4    13 1   
     9     4    14 1   
    10     4    15 1   
    11     5     6 ar  
    12     5    16 1   
    13     6     7 ar  
    14     6    17 1   
    15     7     8 1   
    16     8    10 1   
    17     8    11 1   
    18     9    18 1   
@<TRIPOS>SUBSTRUCTURE
     1 L3S         1 TEMP              0 ****  ****    0 ROOT
