@<TRIPOS>MOLECULE
L3U
   56    57     1     0     0
SMALL
No Charge or Current Charge


@<TRIPOS>ATOM
      1 N           -1.2710     1.0240    -1.2780 n8         1 L3U      -0.986200
      2 CA          -2.3890     0.7930    -0.3050 c3         1 L3U       0.097500
      3 C           -2.9170    -0.6860    -0.2850 c          1 L3U       0.586100
      4 O           -3.3720    -1.2250    -1.2830 o          1 L3U      -0.521100
      5 CB          -3.5510     1.7960    -0.5480 c3         1 L3U      -0.069400
      6 CG          -3.1950     3.3050    -0.3990 c3         1 L3U      -0.053700
      7 CD1         -4.3940     4.1950    -0.7990 c3         1 L3U      -0.090100
      8 CD2         -2.6950     3.6690     1.0200 c3         1 L3U      -0.090100
      9 C1           1.7660    -0.7510    -0.2060 c5         1 L3U       0.329700
     10 C2           2.3030     1.6690     0.0400 c          1 L3U       0.622000
     11 C7           2.5490    -1.7510     0.7070 c5         1 L3U       0.081300
     12 C3           2.1590    -3.0690    -0.0170 c5         1 L3U       0.112300
     13 C4           1.3020     3.0410     1.8410 c          1 L3U       0.591200
     14 C8           0.6350    -2.8190    -0.3140 c5         1 L3U       0.154300
     15 C5           0.6350     1.8180     2.2810 cc         1 L3U      -0.374200
     16 C9          -0.3160    -3.3420     0.7940 c3         1 L3U       0.203600
     17 C6           0.7910     0.6170     1.6400 cd         1 L3U      -0.009400
     18 N1           1.6160     0.5370     0.5250 n          1 L3U      -0.313000
     19 N3           2.1320     2.8860     0.7230 n          1 L3U      -0.368400
     20 N3S         -2.7820    -1.3310     0.9060 ns         1 L3U      -0.623300
     21 O1S         -2.5750    -3.2080     2.5820 o          1 L3U      -0.539000
     22 O2           3.9800    -1.5680     0.7210 oh         1 L3U      -0.690000
     23 O2S         -4.1470    -3.4610     0.5820 o          1 L3U      -0.539000
     24 O3           2.9450    -3.2150    -1.2060 oh         1 L3U      -0.698000
     25 O4           1.1400     4.1070     2.4150 o          1 L3U      -0.515000
     26 O7           0.4790    -1.3700    -0.4100 os         1 L3U      -0.452000
     27 O5          -1.6400    -3.4340     0.2310 os         1 L3U      -0.556700
     28 S           -2.9000    -2.9650     1.1740 s6         1 L3U       1.441500
     29 H1          -0.5240     0.3430    -1.0750 hn         1 L3U       0.412000
     30 H2          -1.5860     0.7500    -2.2160 hn         1 L3U       0.412000
     31 H4          -1.9870     0.9860     0.6980 h1         1 L3U       0.071700
     32 H5          -3.9550     1.6230    -1.5540 hc         1 L3U       0.047700
     33 H6          -4.3650     1.5600     0.1500 hc         1 L3U       0.047700
     34 H7          -2.3830     3.5330    -1.1010 hc         1 L3U       0.065700
     35 H8          -4.7130     3.9790    -1.8260 hc         1 L3U       0.034367
     36 H9          -5.2470     4.0250    -0.1310 hc         1 L3U       0.034367
     37 H10         -4.1240     5.2570    -0.7470 hc         1 L3U       0.034367
     38 H11         -1.7590     3.1510     1.2550 hc         1 L3U       0.034367
     39 H12         -2.5010     4.7460     1.0970 hc         1 L3U       0.034367
     40 H13         -3.4400     3.4010     1.7790 hc         1 L3U       0.034367
     41 H14          2.2740    -0.5940    -1.1670 h2         1 L3U       0.132700
     42 H15          2.1540    -1.7530     1.7320 h1         1 L3U       0.046700
     43 H16          2.3050    -3.9390     0.6390 h1         1 L3U       0.056700
     44 H17          2.2950     4.5130    -0.6330 h1         1 L3U       0.060367
     45 H18          2.9670     4.8470     0.9870 h1         1 L3U       0.060367
     46 H19          3.8590     3.8080    -0.1330 h1         1 L3U       0.060367
     47 H20          0.3450    -3.2850    -1.2660 h1         1 L3U       0.122700
     48 H21         -0.0030     1.9240     3.1510 ha         1 L3U       0.221000
     49 H22          0.0170    -4.3310     1.1340 h1         1 L3U       0.057700
     50 H23         -0.2620    -2.6530     1.6490 h1         1 L3U       0.057700
     51 H24          0.3070    -0.3110     1.9320 h4         1 L3U       0.196000
     52 H25         -2.3830    -0.8610     1.6990 hn         1 L3U       0.343500
     53 H26          4.1820    -0.8370     1.3530 ho         1 L3U       0.518000
     54 H27          3.8220    -2.8290    -0.9570 ho         1 L3U       0.527000
     55 O6           3.0270     1.5960    -0.9450 o          1 L3U      -0.537000
     56 C3U          2.8530     4.0830     0.2090 c3         1 L3U       0.082300
@<TRIPOS>BOND
     1     1     2 1   
     2     1    29 1   
     3     1    30 1   
     4     2     3 1   
     5     2     5 1   
     6     2    31 1   
     7     3     4 2   
     8     3    20 1   
     9     5     6 1   
    10     5    32 1   
    11     5    33 1   
    12     6     7 1   
    13     6     8 1   
    14     6    34 1   
    15     7    35 1   
    16     7    36 1   
    17     7    37 1   
    18     8    38 1   
    19     8    39 1   
    20     8    40 1   
    21     9    11 1   
    22     9    18 1   
    23     9    26 1   
    24     9    41 1   
    25    10    18 1   
    26    10    19 1   
    27    10    55 2   
    28    11    12 1   
    29    11    22 1   
    30    11    42 1   
    31    12    14 1   
    32    12    24 1   
    33    12    43 1   
    34    13    15 1   
    35    13    19 1   
    36    13    25 2   
    37    14    16 1   
    38    14    26 1   
    39    14    47 1   
    40    15    17 2   
    41    15    48 1   
    42    16    27 1   
    43    16    49 1   
    44    16    50 1   
    45    17    18 1   
    46    17    51 1   
    47    19    56 1   
    48    20    28 1   
    49    20    52 1   
    50    21    28 2   
    51    22    53 1   
    52    23    28 2   
    53    24    54 1   
    54    27    28 1   
    55    44    56 1   
    56    45    56 1   
    57    46    56 1   
@<TRIPOS>SUBSTRUCTURE
     1 L3U         1 TEMP              0 ****  ****    0 ROOT
