@<TRIPOS>MOLECULE
L3U
   56    57     1     0     0
SMALL
abcg2


@<TRIPOS>ATOM
      1 N           -1.2150     1.9570    -1.1850 n8         1 L3U      -0.986200
      2 CA          -2.1170     1.2940    -0.2790 c3         1 L3U       0.097500
      3 C           -2.2270    -0.2050    -0.5310 c          1 L3U       0.586100
      4 O           -2.1350    -0.7190    -1.6170 o          1 L3U      -0.521100
      5 CB          -3.5270     1.8890    -0.3750 c3         1 L3U      -0.069400
      6 CG          -3.5960     3.3940    -0.1140 c3         1 L3U      -0.053700
      7 CD1         -5.0380     3.8660    -0.2670 c3         1 L3U      -0.090100
      8 CD2         -3.0470     3.7680     1.2580 c3         1 L3U      -0.090100
      9 C1           2.0760    -0.9920    -0.0150 c5         1 L3U       0.329700
     10 C2           2.4260     1.4220    -0.2210 c          1 L3U       0.622000
     11 C7           2.6380    -1.9220     1.0560 c5         1 L3U       0.081300
     12 C3           2.2260    -3.2880     0.5000 c5         1 L3U       0.112300
     13 C4           1.1930     2.9580     1.2590 c          1 L3U       0.591200
     14 C8           0.8700    -2.9730    -0.1350 c5         1 L3U       0.154300
     15 C5           0.6340     1.7950     1.9050 cc         1 L3U      -0.374200
     16 C9          -0.2940    -3.3280     0.7630 c3         1 L3U       0.203600
     17 C6           0.9530     0.5720     1.4690 cd         1 L3U      -0.009400
     18 N1           1.8210     0.3620     0.4370 n          1 L3U      -0.313000
     19 N3           2.1090     2.6800     0.2430 n          1 L3U      -0.368400
     20 N3S         -2.4680    -0.9470     0.6120 ns         1 L3U      -0.623300
     21 O1S         -2.9540    -2.9430     1.9810 o          1 L3U      -0.539000
     22 O2           4.0140    -1.7270     1.1750 oh         1 L3U      -0.690000
     23 O2S         -3.8350    -2.8690    -0.3660 o          1 L3U      -0.539000
     24 O3           3.0990    -3.7010    -0.5170 oh         1 L3U      -0.698000
     25 O4           0.9120     4.1040     1.5550 o          1 L3U      -0.515000
     26 O7           0.8600    -1.5730    -0.4120 os         1 L3U      -0.452000
     27 O5          -1.4990    -3.2050    -0.0220 os         1 L3U      -0.556700
     28 S           -2.8090    -2.5750     0.5950 s6         1 L3U       1.441500
     29 H1          -0.3210     1.4860    -1.2150 hn         1 L3U       0.412000
     30 H2          -1.5780     1.9260    -2.1310 hn         1 L3U       0.412000
     31 H4          -1.7500     1.4440     0.7400 h1         1 L3U       0.071700
     32 H5          -3.9290     1.6770    -1.3710 hc         1 L3U       0.047700
     33 H6          -4.1820     1.3740     0.3360 hc         1 L3U       0.047700
     34 H7          -2.9900     3.8980    -0.8720 hc         1 L3U       0.065700
     35 H8          -5.4370     3.6240    -1.2540 hc         1 L3U       0.034367
     36 H9          -5.6880     3.3960     0.4760 hc         1 L3U       0.034367
     37 H10         -5.1160     4.9460    -0.1350 hc         1 L3U       0.034367
     38 H11         -1.9770     3.5710     1.3430 hc         1 L3U       0.034367
     39 H12         -3.1910     4.8310     1.4540 hc         1 L3U       0.034367
     40 H13         -3.5540     3.2130     2.0520 hc         1 L3U       0.034367
     41 H14          2.7770    -0.9210    -0.8480 h2         1 L3U       0.132700
     42 H15          2.1280    -1.7610     2.0140 h1         1 L3U       0.046700
     43 H16          2.1450    -4.0410     1.2930 h1         1 L3U       0.056700
     44 H17          2.2120     4.0460    -1.3610 h1         1 L3U       0.060367
     45 H18          2.7310     4.6670     0.2110 h1         1 L3U       0.060367
     46 H19          3.7720     3.5570    -0.6800 h1         1 L3U       0.060367
     47 H20          0.7720    -3.5310    -1.0720 h1         1 L3U       0.122700
     48 H21         -0.0590     1.9290     2.7210 ha         1 L3U       0.221000
     49 H22         -0.2230    -4.3630     1.0950 h1         1 L3U       0.057700
     50 H23         -0.3240    -2.6840     1.6460 h1         1 L3U       0.057700
     51 H24          0.5150    -0.3080     1.9170 h4         1 L3U       0.196000
     52 H25         -2.5770    -0.4880     1.5090 hn         1 L3U       0.343500
     53 H26          4.3080    -2.0750     2.0230 ho         1 L3U       0.518000
     54 H27          4.0030    -3.5720    -0.2050 ho         1 L3U       0.527000
     55 O6           3.1830     1.2540    -1.1520 o          1 L3U      -0.537000
     56 C3U          2.7430     3.8020    -0.4410 c3         1 L3U       0.082300
@<TRIPOS>BOND
     1     1     2 1   
     2     1    29 1   
     3     1    30 1   
     4     2     3 1   
     5     2     5 1   
     6     2    31 1   
     7     3     4 2   
     8     3    20 1   
     9     5     6 1   
    10     5    32 1   
    11     5    33 1   
    12     6     7 1   
    13     6     8 1   
    14     6    34 1   
    15     7    35 1   
    16     7    36 1   
    17     7    37 1   
    18     8    38 1   
    19     8    39 1   
    20     8    40 1   
    21     9    11 1   
    22     9    18 1   
    23     9    26 1   
    24     9    41 1   
    25    10    18 1   
    26    10    19 1   
    27    10    55 2   
    28    11    12 1   
    29    11    22 1   
    30    11    42 1   
    31    12    14 1   
    32    12    24 1   
    33    12    43 1   
    34    13    15 1   
    35    13    19 1   
    36    13    25 2   
    37    14    16 1   
    38    14    26 1   
    39    14    47 1   
    40    15    17 2   
    41    15    48 1   
    42    16    27 1   
    43    16    49 1   
    44    16    50 1   
    45    17    18 1   
    46    17    51 1   
    47    19    56 1   
    48    20    28 1   
    49    20    52 1   
    50    21    28 2   
    51    22    53 1   
    52    23    28 2   
    53    24    54 1   
    54    27    28 1   
    55    44    56 1   
    56    45    56 1   
    57    46    56 1   
@<TRIPOS>SUBSTRUCTURE
     1 L3U         1 TEMP              0 ****  ****    0 ROOT
