@<TRIPOS>MOLECULE
L3V
   23    23     1     0     0
SMALL
bcc


@<TRIPOS>ATOM
      1 C01        -14.5840   -21.9230    -2.1230 c3         1 L3V      -0.182100
      2 C02        -15.3770   -22.3110    -0.9000 c          1 L3V       0.675100
      3 N03        -16.2540   -21.3620    -0.4830 ns         1 L3V      -0.474100
      4 C04        -17.1050   -21.3580     0.6260 ca         1 L3V       0.078600
      5 C05        -17.2800   -22.4370     1.4970 ca         1 L3V      -0.173000
      6 C06        -18.1610   -22.3250     2.5620 ca         1 L3V      -0.081500
      7 C07        -18.8890   -21.1630     2.7980 ca         1 L3V      -0.115300
      8 C08        -19.8430   -21.0760     3.9540 c3         1 L3V       0.191700
      9 C09        -18.7030   -20.0960     1.9280 ca         1 L3V      -0.081500
     10 C10        -17.8300   -20.1880     0.8580 ca         1 L3V      -0.173000
     11 O11        -15.2130   -23.3800    -0.3380 o          1 L3V      -0.580100
     12 O1         -19.1360   -21.3220     5.1520 oh         1 L3V      -0.591800
     13 H1         -14.5310   -22.7690    -2.8060 hc         1 L3V       0.063367
     14 H2         -14.9930   -21.0670    -2.6560 hc         1 L3V       0.063367
     15 H3         -13.5640   -21.6790    -1.8220 hc         1 L3V       0.063367
     16 H4         -16.2820   -20.5180    -1.0340 hn         1 L3V       0.314500
     17 H5         -16.7430   -23.3600     1.3510 ha         1 L3V       0.145500
     18 H6         -18.2820   -23.1790     3.2170 ha         1 L3V       0.133500
     19 H7         -20.3180   -20.0870     3.9580 h1         1 L3V       0.022200
     20 H8         -20.6470   -21.8100     3.8160 h1         1 L3V       0.022200
     21 H9         -19.2450   -19.1710     2.0840 ha         1 L3V       0.133500
     22 H10        -17.7050   -19.3380     0.1970 ha         1 L3V       0.145500
     23 H11        -19.7750   -21.3620     5.8690 ho         1 L3V       0.401000
@<TRIPOS>BOND
     1     1     2 1   
     2     1    13 1   
     3     1    14 1   
     4     1    15 1   
     5     2     3 1   
     6     2    11 2   
     7     3     4 1   
     8     3    16 1   
     9     4     5 ar  
    10     4    10 ar  
    11     5     6 ar  
    12     5    17 1   
    13     6     7 ar  
    14     6    18 1   
    15     7     8 1   
    16     7     9 ar  
    17     8    12 1   
    18     8    19 1   
    19     8    20 1   
    20     9    10 ar  
    21     9    21 1   
    22    10    22 1   
    23    12    23 1   
@<TRIPOS>SUBSTRUCTURE
     1 L3V         1 TEMP              0 ****  ****    0 ROOT
