@<TRIPOS>MOLECULE
L3V
   23    23     1     0     0
SMALL
No Charge or Current Charge


@<TRIPOS>ATOM
      1 C01        -14.5560   -21.9110    -2.2060 c3         1 L3V      -0.182100
      2 C02        -15.3970   -22.3850    -1.0230 c          1 L3V       0.608100
      3 N03        -16.1630   -21.3840    -0.4390 ns         1 L3V      -0.148000
      4 C04        -17.0670   -21.3840     0.6590 ca         1 L3V      -0.014000
      5 C05        -17.3610   -22.5290     1.4320 ca         1 L3V      -0.155000
      6 C06        -18.2680   -22.4500     2.5050 ca         1 L3V      -0.063500
      7 C07        -18.8940   -21.2310     2.8230 ca         1 L3V      -0.115300
      8 C08        -19.8790   -21.1490     3.9810 c3         1 L3V       0.214900
      9 C09        -18.6020   -20.0880     2.0560 ca         1 L3V      -0.063500
     10 C10        -17.6960   -20.1670     0.9840 ca         1 L3V      -0.155000
     11 O11        -15.3710   -23.5530    -0.6530 o          1 L3V      -0.580100
     12 O1         -19.1930   -20.8190     5.1920 oh         1 L3V      -0.654000
     13 H1         -13.9600   -22.7150    -2.6510 hc         1 L3V       0.063367
     14 H2         -15.2130   -21.4370    -2.9440 hc         1 L3V       0.063367
     15 H3         -13.9270   -21.0730    -1.8830 hc         1 L3V       0.063367
     16 H4         -16.0580   -20.4790    -0.8790 hn         1 L3V       0.148000
     17 H5         -16.9010   -23.4880     1.2230 ha         1 L3V       0.127500
     18 H6         -18.4830   -23.3410     3.0920 ha         1 L3V       0.115500
     19 H7         -20.6410   -20.3910     3.7570 h1         1 L3V       0.022200
     20 H8         -20.3960   -22.1130     4.0870 h1         1 L3V       0.022200
     21 H9         -19.0760   -19.1380     2.2910 ha         1 L3V       0.115500
     22 H10        -17.4830   -19.2730     0.4020 ha         1 L3V       0.127500
     23 H11        -19.8740   -20.7820     5.8990 ho         1 L3V       0.440000
@<TRIPOS>BOND
     1     1     2 1   
     2     1    13 1   
     3     1    14 1   
     4     1    15 1   
     5     2     3 1   
     6     2    11 2   
     7     3     4 1   
     8     3    16 1   
     9     4     5 ar  
    10     4    10 ar  
    11     5     6 ar  
    12     5    17 1   
    13     6     7 ar  
    14     6    18 1   
    15     7     8 1   
    16     7     9 ar  
    17     8    12 1   
    18     8    19 1   
    19     8    20 1   
    20     9    10 ar  
    21     9    21 1   
    22    10    22 1   
    23    12    23 1   
@<TRIPOS>SUBSTRUCTURE
     1 L3V         1 TEMP              0 ****  ****    0 ROOT
