@<TRIPOS>MOLECULE
L3W
   73    76     1     0     0
SMALL
No Charge or Current Charge


@<TRIPOS>ATOM
      1 C1          26.7260   -10.5980   -30.9610 ca         1 L3W       0.144900
      2 C3          26.3020   -10.5610   -28.7120 ca         1 L3W       0.429900
      3 N6          27.2050   -11.8660   -30.9690 nb         1 L3W      -0.202000
      4 C8          27.4300   -13.8520   -28.0180 cc         1 L3W       0.475700
      5 C10         28.2270   -14.7570   -30.2610 c5         1 L3W       0.302300
      6 C12         29.3950   -15.6100   -29.6750 c5         1 L3W       0.123300
      7 C14         29.3670   -16.7880   -30.6920 c5         1 L3W       0.114300
      8 C16         27.8210   -17.0570   -30.7140 c5         1 L3W       0.139300
      9 C19         27.2710   -18.0300   -29.6010 c3         1 L3W       0.242600
     10 O28         32.0090   -18.6940   -28.2970 os         1 L3W      -0.594400
     11 C30         30.9750   -20.6580   -29.3650 c5         1 L3W       0.132300
     12 C32         31.0740   -22.1750   -29.7100 c5         1 L3W       0.093300
     13 C34         30.2020   -22.2410   -31.0100 c5         1 L3W       0.106300
     14 N2          26.2730    -9.9090   -29.8850 nb         1 L3W      -0.330000
     15 C4          26.7870   -11.8840   -28.6230 ca         1 L3W      -0.082600
     16 C5          27.2230   -12.4910   -29.7750 ca         1 L3W       0.116500
     17 N7          27.6320   -13.7390   -29.3990 na         1 L3W      -0.264300
     18 N9          26.9070   -12.7170   -27.5050 nd         1 L3W      -0.595100
     19 O18         27.2080   -15.7320   -30.6090 os         1 L3W      -0.464000
     20 O20         27.4440   -17.4710   -28.2860 os         1 L3W      -0.619400
     21 P21         28.3670   -18.1770   -27.1670 p5         1 L3W       1.482800
     22 O22         28.4260   -17.2680   -25.9880 o          1 L3W      -0.836500
     23 O23         27.8580   -19.5370   -26.8330 o          1 L3W      -0.836500
     24 O24         29.6860   -18.2450   -28.0170 os         1 L3W      -0.766800
     25 P25         31.0360   -17.8760   -27.3120 p5         1 L3W       1.507800
     26 O26         31.1990   -18.3790   -25.9180 o          1 L3W      -0.846500
     27 O27         31.3230   -16.4160   -27.4810 o          1 L3W      -0.846500
     28 C29         32.0130   -20.1340   -28.3280 c3         1 L3W       0.244600
     29 C36         30.3890   -20.7840   -31.5920 c5         1 L3W       0.309700
     30 O38         31.1860   -20.0430   -30.6540 os         1 L3W      -0.435000
     31 N39         31.0200   -20.8360   -32.9410 n          1 L3W      -0.319000
     32 C40         30.3570   -20.2150   -34.0260 c2         1 L3W      -0.068400
     33 C41         29.6300   -19.0780   -33.9580 ce         1 L3W      -0.222000
     34 C42         29.0050   -18.4560   -35.1350 ce         1 L3W      -0.212000
     35 C43         28.3700   -17.2460   -35.2100 cf         1 L3W       0.026900
     36 C44         27.7410   -16.7830   -36.5210 c          1 L3W       0.612300
     37 O45         27.7560   -17.4220   -37.5640 o          1 L3W      -0.642100
     38 N46         27.1330   -15.5760   -36.4870 nt         1 L3W      -0.595000
     39 O47         28.2730   -16.4240   -34.1300 oh         1 L3W      -0.593100
     40 C48         32.3460   -21.2850   -33.1150 c          1 L3W       0.610900
     41 O49         33.0290   -21.7990   -32.2350 o          1 L3W      -0.589100
     42 O50         28.8530   -22.5180   -30.6150 oh         1 L3W      -0.726000
     43 O51         30.5380   -23.0410   -28.6890 oh         1 L3W      -0.682000
     44 O52         29.8940   -16.3770   -31.9730 oh         1 L3W      -0.795000
     45 O53         30.6920   -14.9960   -29.5490 oh         1 L3W      -0.777000
     46 N54         25.8500    -9.8660   -27.6340 nv         1 L3W      -1.084900
     47 H1          26.7060   -10.0790   -31.9170 h5         1 L3W       0.021100
     48 H2          27.6640   -14.7550   -27.4640 h5         1 L3W       0.128800
     49 H3          28.5650   -14.2440   -31.1700 h2         1 L3W       0.085700
     50 H4          29.0930   -15.9350   -28.6800 h1         1 L3W       0.101700
     51 H5          29.9180   -17.6640   -30.3230 h1         1 L3W       0.115700
     52 H6          27.5300   -17.4940   -31.6780 h1         1 L3W       0.049700
     53 H7          26.2040   -18.2050   -29.7900 h1         1 L3W       0.024200
     54 H8          27.7810   -18.9980   -29.6950 h1         1 L3W       0.024200
     55 H9          29.9630   -20.4200   -29.0130 h1         1 L3W       0.119700
     56 H10         32.1150   -22.4470   -29.9340 h1         1 L3W       0.060700
     57 H11         30.5670   -23.0170   -31.6970 h1         1 L3W       0.046700
     58 H14         31.7770   -20.5570   -27.3430 h1         1 L3W       0.032700
     59 H15         33.0090   -20.4960   -28.6130 h1         1 L3W       0.032700
     60 H16         29.4050   -20.3130   -31.7020 h2         1 L3W       0.079700
     61 H17         30.5280   -20.7220   -34.9780 h4         1 L3W       0.169000
     62 H18         29.5040   -18.5800   -33.0010 ha         1 L3W       0.210000
     63 H19         29.0520   -19.0480   -36.0520 ha         1 L3W       0.185000
     64 H20         26.6960   -15.2100   -37.3180 hn         1 L3W       0.319000
     65 H21         27.1260   -15.0620   -35.6180 hn         1 L3W       0.319000
     66 H22         28.9550   -16.6640   -33.4410 ho         1 L3W       0.531000
     67 H23         32.7070   -21.1370   -34.1500 h5         1 L3W      -0.002800
     68 H24         28.9850   -22.9050   -29.7080 ho         1 L3W       0.532000
     69 H25         31.2920   -23.3580   -28.1370 ho         1 L3W       0.488000
     70 H26         30.6770   -15.8130   -31.7460 ho         1 L3W       0.540000
     71 H27         31.0890   -15.4610   -28.7320 ho         1 L3W       0.608000
     72 H28         25.7940    -8.8530   -27.7090 hn         1 L3W       0.493000
     73 H29         26.0610   -10.2480   -26.7160 hn         1 L3W       0.493000
@<TRIPOS>BOND
     1     1     3 ar  
     2     1    14 ar  
     3     1    47 1   
     4     2    14 ar  
     5     2    15 ar  
     6     2    46 1   
     7     3    16 ar  
     8     4    17 1   
     9     4    18 2   
    10     4    48 1   
    11     5     6 1   
    12     5    17 1   
    13     5    19 1   
    14     5    49 1   
    15     6     7 1   
    16     6    45 1   
    17     6    50 1   
    18     7     8 1   
    19     7    44 1   
    20     7    51 1   
    21     8     9 1   
    22     8    19 1   
    23     8    52 1   
    24     9    20 1   
    25     9    53 1   
    26     9    54 1   
    27    10    25 1   
    28    10    28 1   
    29    11    12 1   
    30    11    28 1   
    31    11    30 1   
    32    11    55 1   
    33    12    13 1   
    34    12    43 1   
    35    12    56 1   
    36    13    29 1   
    37    13    42 1   
    38    13    57 1   
    39    15    16 ar  
    40    15    18 1   
    41    16    17 1   
    42    20    21 1   
    43    21    22 1   
    44    21    23 1   
    45    21    24 1   
    46    24    25 1   
    47    25    26 1   
    48    25    27 1   
    49    28    58 1   
    50    28    59 1   
    51    29    30 1   
    52    29    31 1   
    53    29    60 1   
    54    31    32 1   
    55    31    40 1   
    56    32    33 2   
    57    32    61 1   
    58    33    34 1   
    59    33    62 1   
    60    34    35 2   
    61    34    63 1   
    62    35    36 1   
    63    35    39 1   
    64    36    37 2   
    65    36    38 1   
    66    38    64 1   
    67    38    65 1   
    68    39    66 1   
    69    40    41 2   
    70    40    67 1   
    71    42    68 1   
    72    43    69 1   
    73    44    70 1   
    74    45    71 1   
    75    46    72 1   
    76    46    73 1   
@<TRIPOS>SUBSTRUCTURE
     1 L3W         1 TEMP              0 ****  ****    0 ROOT
