@<TRIPOS>MOLECULE
L3W
   73    76     1     0     0
SMALL
abcg2


@<TRIPOS>ATOM
      1 C1          27.0060   -10.5160   -30.5080 ca         1 L3W       0.144900
      2 C3          26.4750   -10.5800   -28.2710 ca         1 L3W       0.429900
      3 N6          27.3100   -11.7930   -30.6590 nb         1 L3W      -0.202000
      4 C8          27.1310   -14.0090   -27.9650 cc         1 L3W       0.475700
      5 C10         27.8550   -14.7610   -30.2650 c5         1 L3W       0.302300
      6 C12         29.1220   -15.5070   -29.8540 c5         1 L3W       0.123300
      7 C14         28.9740   -16.7740   -30.6880 c5         1 L3W       0.114300
      8 C16         27.4850   -17.0450   -30.5620 c5         1 L3W       0.139300
      9 C19         27.1020   -17.9490   -29.3970 c3         1 L3W       0.242600
     10 O28         32.1210   -18.4160   -28.8460 os         1 L3W      -0.594400
     11 C30         30.9570   -20.4550   -29.5000 c5         1 L3W       0.132300
     12 C32         31.0090   -21.9770   -29.5730 c5         1 L3W       0.093300
     13 C34         30.1480   -22.2640   -30.8190 c5         1 L3W       0.106300
     14 N2          26.6080    -9.8850   -29.4070 nb         1 L3W      -0.330000
     15 C4          26.7690   -11.9550   -28.3010 ca         1 L3W      -0.082600
     16 C5          27.1760   -12.4710   -29.5210 ca         1 L3W       0.116500
     17 N7          27.4100   -13.7970   -29.2910 na         1 L3W      -0.264300
     18 N9          26.7450   -12.9350   -27.3420 nd         1 L3W      -0.595100
     19 O18         26.8760   -15.7550   -30.4360 os         1 L3W      -0.464000
     20 O20         27.4250   -17.3790   -28.1510 os         1 L3W      -0.619400
     21 P21         28.4760   -18.0280   -27.0620 p5         1 L3W       1.482800
     22 O22         28.5530   -17.0160   -25.9680 o          1 L3W      -0.836500
     23 O23         28.1410   -19.4650   -26.8310 o          1 L3W      -0.836500
     24 O24         29.8530   -17.9960   -27.9630 os         1 L3W      -0.766800
     25 P25         31.3940   -17.5180   -27.6870 p5         1 L3W       1.507800
     26 O26         31.8320   -17.9510   -26.3290 o          1 L3W      -0.846500
     27 O27         31.5770   -16.0900   -28.1330 o          1 L3W      -0.846500
     28 C29         32.1270   -19.8300   -28.7710 c3         1 L3W       0.244600
     29 C36         30.3110   -20.9770   -31.6540 c5         1 L3W       0.309700
     30 O38         30.9810   -20.0360   -30.8530 os         1 L3W      -0.435000
     31 N39         31.0010   -21.0850   -32.9220 n          1 L3W      -0.319000
     32 C40         30.6130   -20.2920   -34.0010 c2         1 L3W      -0.068400
     33 C41         29.7150   -19.2960   -34.0000 ce         1 L3W      -0.222000
     34 C42         29.4210   -18.5830   -35.2200 ce         1 L3W      -0.212000
     35 C43         28.6200   -17.5110   -35.3390 cf         1 L3W       0.026900
     36 C44         28.3910   -16.9110   -36.6910 c          1 L3W       0.612300
     37 O45         28.8490   -17.4150   -37.7090 o          1 L3W      -0.642100
     38 N46         27.6560   -15.7900   -36.6930 nt         1 L3W      -0.595000
     39 O47         27.9570   -16.8950   -34.3380 oh         1 L3W      -0.593100
     40 C48         32.1700   -21.7820   -33.0440 c          1 L3W       0.610900
     41 O49         32.7170   -22.3870   -32.1520 o          1 L3W      -0.589100
     42 O50         28.7900   -22.3530   -30.4630 oh         1 L3W      -0.726000
     43 O51         30.4710   -22.5320   -28.4010 oh         1 L3W      -0.682000
     44 O52         29.2800   -16.4770   -32.0430 oh         1 L3W      -0.795000
     45 O53         30.2900   -14.7910   -30.0860 oh         1 L3W      -0.777000
     46 N54         26.0650    -9.9540   -27.1660 nv         1 L3W      -1.084900
     47 H1          27.0920    -9.8970   -31.3940 h5         1 L3W       0.021100
     48 H2          27.2330   -14.9840   -27.5130 h5         1 L3W       0.128800
     49 H3          28.0130   -14.1940   -31.1890 h2         1 L3W       0.085700
     50 H4          29.0360   -15.7670   -28.7990 h1         1 L3W       0.101700
     51 H5          29.5850   -17.6070   -30.3390 h1         1 L3W       0.115700
     52 H6          27.1020   -17.5290   -31.4690 h1         1 L3W       0.049700
     53 H7          26.0200   -18.1140   -29.4310 h1         1 L3W       0.024200
     54 H8          27.5720   -18.9260   -29.5560 h1         1 L3W       0.024200
     55 H9          30.0140   -20.1650   -29.0230 h1         1 L3W       0.119700
     56 H10         32.0330   -22.3170   -29.7460 h1         1 L3W       0.060700
     57 H11         30.4670   -23.1650   -31.3500 h1         1 L3W       0.046700
     58 H14         32.1240   -20.1830   -27.7350 h1         1 L3W       0.032700
     59 H15         33.0590   -20.1730   -29.2290 h1         1 L3W       0.032700
     60 H16         29.3000   -20.6340   -31.8920 h2         1 L3W       0.079700
     61 H17         31.1330   -20.5360   -34.9200 h4         1 L3W       0.169000
     62 H18         29.2010   -19.0070   -33.0930 ha         1 L3W       0.210000
     63 H19         29.8940   -18.9360   -36.1280 ha         1 L3W       0.185000
     64 H20         27.4650   -15.3170   -37.5610 hn         1 L3W       0.319000
     65 H21         27.3140   -15.3770   -35.8430 hn         1 L3W       0.319000
     66 H22         28.4720   -16.8520   -33.5030 ho         1 L3W       0.531000
     67 H23         32.5760   -21.7450   -34.0650 h5         1 L3W      -0.002800
     68 H24         28.7550   -22.7230   -29.5710 ho         1 L3W       0.532000
     69 H25         30.8320   -23.4160   -28.2760 ho         1 L3W       0.488000
     70 H26         30.1020   -15.9680   -32.0660 ho         1 L3W       0.540000
     71 H27         30.9280   -15.1800   -29.4410 ho         1 L3W       0.608000
     72 H28         25.9180    -8.9590   -27.1740 hn         1 L3W       0.493000
     73 H29         26.0130   -10.4360   -26.2860 hn         1 L3W       0.493000
@<TRIPOS>BOND
     1     1     3 ar  
     2     1    14 ar  
     3     1    47 1   
     4     2    14 ar  
     5     2    15 ar  
     6     2    46 1   
     7     3    16 ar  
     8     4    17 1   
     9     4    18 2   
    10     4    48 1   
    11     5     6 1   
    12     5    17 1   
    13     5    19 1   
    14     5    49 1   
    15     6     7 1   
    16     6    45 1   
    17     6    50 1   
    18     7     8 1   
    19     7    44 1   
    20     7    51 1   
    21     8     9 1   
    22     8    19 1   
    23     8    52 1   
    24     9    20 1   
    25     9    53 1   
    26     9    54 1   
    27    10    25 1   
    28    10    28 1   
    29    11    12 1   
    30    11    28 1   
    31    11    30 1   
    32    11    55 1   
    33    12    13 1   
    34    12    43 1   
    35    12    56 1   
    36    13    29 1   
    37    13    42 1   
    38    13    57 1   
    39    15    16 ar  
    40    15    18 1   
    41    16    17 1   
    42    20    21 1   
    43    21    22 1   
    44    21    23 1   
    45    21    24 1   
    46    24    25 1   
    47    25    26 1   
    48    25    27 1   
    49    28    58 1   
    50    28    59 1   
    51    29    30 1   
    52    29    31 1   
    53    29    60 1   
    54    31    32 1   
    55    31    40 1   
    56    32    33 2   
    57    32    61 1   
    58    33    34 1   
    59    33    62 1   
    60    34    35 2   
    61    34    63 1   
    62    35    36 1   
    63    35    39 1   
    64    36    37 2   
    65    36    38 1   
    66    38    64 1   
    67    38    65 1   
    68    39    66 1   
    69    40    41 2   
    70    40    67 1   
    71    42    68 1   
    72    43    69 1   
    73    44    70 1   
    74    45    71 1   
    75    46    72 1   
    76    46    73 1   
@<TRIPOS>SUBSTRUCTURE
     1 L3W         1 TEMP              0 ****  ****    0 ROOT
