@<TRIPOS>MOLECULE
L3Y
   20    20     1     0     0
SMALL
bcc


@<TRIPOS>ATOM
      1 C01        -14.5840   -19.4230     0.5140 c3         1 L3Y      -0.225300
      2 S02        -15.9440   -20.3880    -0.0980 sy         1 L3Y       1.083300
      3 O03        -15.4520   -21.7170    -0.4540 o          1 L3Y      -0.588800
      4 C04        -17.0060   -20.5560     1.3220 ca         1 L3Y      -0.239500
      5 C05        -18.0210   -19.6320     1.5180 ca         1 L3Y      -0.049500
      6 C06        -18.8390   -19.7710     2.6290 ca         1 L3Y      -0.098500
      7 C07        -18.6390   -20.8200     3.5190 ca         1 L3Y      -0.149600
      8 C08        -19.5350   -20.9380     4.6880 c          1 L3Y       0.577500
      9 C09        -17.6150   -21.7410     3.3040 ca         1 L3Y      -0.098500
     10 C10        -16.7940   -21.6130     2.2000 ca         1 L3Y      -0.049500
     11 O11        -16.6540   -19.6070    -1.1070 o          1 L3Y      -0.588800
     12 H1         -14.1020   -19.9530     1.3320 h1         1 L3Y       0.104367
     13 H2         -13.8840   -19.2920    -0.3110 h1         1 L3Y       0.104367
     14 H3         -14.9500   -18.4560     0.8510 h1         1 L3Y       0.104367
     15 H4         -18.1790   -18.8190     0.8240 ha         1 L3Y       0.159500
     16 H5         -19.6380   -19.0600     2.7970 ha         1 L3Y       0.149500
     17 H6         -20.3060   -20.1510     4.7580 h4         1 L3Y      -0.003800
     18 H9         -17.4630   -22.5590     3.9970 ha         1 L3Y       0.149500
     19 H10        -16.0030   -22.3310     2.0280 ha         1 L3Y       0.159500
     20 O1         -19.4570   -21.8130     5.5140 o          1 L3Y      -0.499100
@<TRIPOS>BOND
     1     1     2 1   
     2     1    12 1   
     3     1    13 1   
     4     1    14 1   
     5     2     3 2   
     6     2     4 1   
     7     2    11 2   
     8     4     5 ar  
     9     4    10 ar  
    10     5     6 ar  
    11     5    15 1   
    12     6     7 ar  
    13     6    16 1   
    14     7     8 1   
    15     7     9 ar  
    16     8    17 1   
    17     8    20 2   
    18     9    10 ar  
    19     9    18 1   
    20    10    19 1   
@<TRIPOS>SUBSTRUCTURE
     1 L3Y         1 TEMP              0 ****  ****    0 ROOT
