@<TRIPOS>MOLECULE
L3Y
   20    20     1     0     0
SMALL
No Charge or Current Charge


@<TRIPOS>ATOM
      1 C01        -14.5640   -19.3970     0.4710 c3         1 L3Y      -0.336100
      2 S02        -15.9090   -20.4070    -0.1480 sy         1 L3Y       1.052500
      3 O03        -15.3330   -21.7210    -0.4660 o          1 L3Y      -0.518000
      4 C04        -16.9910   -20.5730     1.2890 ca         1 L3Y      -0.239500
      5 C05        -18.0140   -19.6290     1.5210 ca         1 L3Y      -0.031500
      6 C06        -18.8500   -19.7540     2.6440 ca         1 L3Y      -0.080500
      7 C07        -18.6760   -20.8210     3.5500 ca         1 L3Y      -0.149600
      8 C08        -19.5810   -20.9410     4.7490 c          1 L3Y       0.577500
      9 C09        -17.6500   -21.7620     3.3160 ca         1 L3Y      -0.080500
     10 C10        -16.8120   -21.6390     2.1940 ca         1 L3Y      -0.031500
     11 O11        -16.5950   -19.6080    -1.1720 o          1 L3Y      -0.518000
     12 H1         -14.0930   -19.9290     1.3040 h1         1 L3Y       0.104367
     13 H2         -13.8490   -19.2430    -0.3450 h1         1 L3Y       0.104367
     14 H3         -14.9810   -18.4420     0.8070 h1         1 L3Y       0.104367
     15 H4         -18.1650   -18.7950     0.8360 ha         1 L3Y       0.141500
     16 H5         -19.6340   -19.0180     2.8080 ha         1 L3Y       0.131500
     17 H6         -20.3590   -20.1530     4.8500 h4         1 L3Y      -0.003800
     18 H9         -17.4970   -22.5920     4.0040 ha         1 L3Y       0.131500
     19 H10        -16.0250   -22.3760     2.0350 ha         1 L3Y       0.141500
     20 O1         -19.4890   -21.8410     5.5790 o          1 L3Y      -0.499100
@<TRIPOS>BOND
     1     1     2 1   
     2     1    12 1   
     3     1    13 1   
     4     1    14 1   
     5     2     3 2   
     6     2     4 1   
     7     2    11 2   
     8     4     5 ar  
     9     4    10 ar  
    10     5     6 ar  
    11     5    15 1   
    12     6     7 ar  
    13     6    16 1   
    14     7     8 1   
    15     7     9 ar  
    16     8    17 1   
    17     8    20 2   
    18     9    10 ar  
    19     9    18 1   
    20    10    19 1   
@<TRIPOS>SUBSTRUCTURE
     1 L3Y         1 TEMP              0 ****  ****    0 ROOT
