@<TRIPOS>MOLECULE
L3Z
   52    56     1     0     0
SMALL
No Charge or Current Charge


@<TRIPOS>ATOM
      1 C2           0.5050    -2.3160    -0.5220 c          1 L3Z       0.628700
      2 C4           2.3450    -0.7270     0.0210 cc         1 L3Z       0.474400
      3 C6           4.4810    -0.6920     0.2960 ca         1 L3Z       0.074400
      4 C7           5.8400    -1.0250     0.4000 ca         1 L3Z      -0.045000
      5 C8           6.7620     0.0020     0.7010 ca         1 L3Z      -0.134000
      6 C11          4.0650     0.5980     0.4840 ca         1 L3Z      -0.073200
      7 C15          0.5460     3.4260    -1.1720 c3         1 L3Z      -0.069400
      8 C16         -0.7490     2.6140    -1.4510 c3         1 L3Z      -0.086400
      9 C17         -1.7320     2.5120    -0.2640 c3         1 L3Z       0.171600
     10 C19         -3.7310     1.1620     0.2380 ca         1 L3Z       0.131100
     11 C21         -5.6250     1.8510     1.6070 ca         1 L3Z      -0.082000
     12 C23         -5.2000    -0.5140     1.2110 ca         1 L3Z      -0.058000
     13 C24         -4.0560    -0.2100     0.4280 cp         1 L3Z      -0.166500
     14 C27         -3.1190    -3.4300    -1.0990 ca         1 L3Z       0.335900
     15 C30         -1.7980    -1.2720    -0.0610 ca         1 L3Z      -0.126000
     16 O1           1.1740    -3.3160    -0.7390 o          1 L3Z      -0.528100
     17 N3           1.0430    -1.0900    -0.2110 ns         1 L3Z      -0.433400
     18 N5           3.4140    -1.5420     0.0060 nd         1 L3Z      -0.548100
     19 C9           6.3180     1.3320     0.8910 ca         1 L3Z      -0.093000
     20 C10          4.9470     1.6470     0.7820 ca         1 L3Z      -0.116000
     21 N12          2.7120     0.5870     0.3180 na         1 L3Z      -0.200600
     22 C13          1.8580     1.7880     0.3830 c3         1 L3Z       0.086600
     23 C14          1.8110     2.5550    -0.9580 c3         1 L3Z      -0.104400
     24 O18         -2.6700     1.4680    -0.5870 os         1 L3Z      -0.368100
     25 C20         -4.5070     2.1810     0.8250 ca         1 L3Z      -0.154000
     26 C22         -5.9730     0.5040     1.7950 ca         1 L3Z      -0.128000
     27 C25         -3.2110    -1.3130    -0.1370 cp         1 L3Z       0.416500
     28 N26         -3.8550    -2.3930    -0.6340 nb         1 L3Z      -0.653000
     29 C28         -1.7130    -3.4440    -1.0840 ca         1 L3Z      -0.110000
     30 C29         -1.0110    -2.3390    -0.5580 ca         1 L3Z      -0.117600
     31 H1           6.1720    -2.0500     0.2520 ha         1 L3Z       0.132000
     32 H2           7.8210    -0.2320     0.7870 ha         1 L3Z       0.115000
     33 H3           0.7330     4.0720    -2.0390 hc         1 L3Z       0.045700
     34 H4           0.4020     4.1000    -0.3180 hc         1 L3Z       0.045700
     35 H5          -1.2850     3.0850    -2.2840 hc         1 L3Z       0.061200
     36 H6          -0.4860     1.6060    -1.7960 hc         1 L3Z       0.061200
     37 H7          -1.1950     2.2640     0.6590 h1         1 L3Z       0.023700
     38 H8          -2.2300     3.4790    -0.1280 h1         1 L3Z       0.023700
     39 H9          -6.2280     2.6370     2.0570 ha         1 L3Z       0.116000
     40 H10         -5.4800    -1.5510     1.3820 ha         1 L3Z       0.130000
     41 H12         -1.3430    -0.4140     0.4210 ha         1 L3Z       0.120000
     42 H13          0.3610    -0.3560    -0.1320 hn         1 L3Z       0.333500
     43 H14          7.0370     2.1160     1.1210 ha         1 L3Z       0.112000
     44 H15          4.5950     2.6650     0.9250 ha         1 L3Z       0.116000
     45 H16          0.8480     1.4710     0.6640 h1         1 L3Z       0.053200
     46 H17          2.2170     2.4540     1.1780 h1         1 L3Z       0.053200
     47 H18          1.8870     1.8430    -1.7900 hc         1 L3Z       0.060200
     48 H19          2.7030     3.1910    -1.0240 hc         1 L3Z       0.060200
     49 H20         -4.2660     3.2270     0.6620 ha         1 L3Z       0.122000
     50 H21         -6.8430     0.2480     2.3970 ha         1 L3Z       0.120000
     51 H22         -1.1860    -4.3080    -1.4780 ha         1 L3Z       0.146000
     52 H11         -3.6760    -4.2770    -1.4970 h4         1 L3Z       0.027100
@<TRIPOS>BOND
     1     1    16 2   
     2     1    17 1   
     3     1    30 1   
     4     2    17 1   
     5     2    18 2   
     6     2    21 1   
     7     3     4 ar  
     8     3     6 ar  
     9     3    18 1   
    10     4     5 ar  
    11     4    31 1   
    12     5    19 ar  
    13     5    32 1   
    14     6    20 ar  
    15     6    21 1   
    16     7     8 1   
    17     7    23 1   
    18     7    33 1   
    19     7    34 1   
    20     8     9 1   
    21     8    35 1   
    22     8    36 1   
    23     9    24 1   
    24     9    37 1   
    25     9    38 1   
    26    10    13 ar  
    27    10    24 1   
    28    10    25 ar  
    29    11    25 ar  
    30    11    26 ar  
    31    11    39 1   
    32    12    13 ar  
    33    12    26 ar  
    34    12    40 1   
    35    13    27 1   
    36    14    28 ar  
    37    14    29 ar  
    38    14    52 1   
    39    15    27 ar  
    40    15    30 ar  
    41    15    41 1   
    42    17    42 1   
    43    19    20 ar  
    44    19    43 1   
    45    20    44 1   
    46    21    22 1   
    47    22    23 1   
    48    22    45 1   
    49    22    46 1   
    50    23    47 1   
    51    23    48 1   
    52    25    49 1   
    53    26    50 1   
    54    27    28 ar  
    55    29    30 ar  
    56    29    51 1   
@<TRIPOS>SUBSTRUCTURE
     1 L3Z         1 TEMP              0 ****  ****    0 ROOT
