@<TRIPOS>MOLECULE
L3Z
   52    56     1     0     0
SMALL
bcc


@<TRIPOS>ATOM
      1 C2           0.5320    -1.9740    -0.6280 c          1 L3Z       0.695700
      2 C4           2.3930    -0.8080     0.4200 cc         1 L3Z       0.474400
      3 C6           4.5050    -0.7320     0.4580 ca         1 L3Z       0.074400
      4 C7           5.8710    -1.0100     0.4550 ca         1 L3Z      -0.063000
      5 C8           6.7470     0.0530     0.5730 ca         1 L3Z      -0.152000
      6 C11          4.0590     0.5940     0.5820 ca         1 L3Z      -0.073200
      7 C15          0.5520     3.2150    -1.1720 c3         1 L3Z      -0.069400
      8 C16         -0.8580     2.7210    -1.5180 c3         1 L3Z      -0.086400
      9 C17         -1.7220     2.3760    -0.3190 c3         1 L3Z       0.148400
     10 C19         -3.7800     1.2420     0.0970 ca         1 L3Z       0.131100
     11 C21         -5.6640     1.8690     1.4580 ca         1 L3Z      -0.100000
     12 C23         -5.1000    -0.4450     1.1880 ca         1 L3Z      -0.076000
     13 C24         -4.0070    -0.1080     0.3880 cp         1 L3Z      -0.166500
     14 C27         -2.9670    -3.2730    -1.0470 ca         1 L3Z       0.401200
     15 C30         -1.7460    -1.0670    -0.0930 ca         1 L3Z      -0.209300
     16 O1           1.1850    -2.4830    -1.5120 o          1 L3Z      -0.528100
     17 N3           1.0660    -1.2090     0.3670 ns         1 L3Z      -0.500400
     18 N5           3.4310    -1.5850     0.3690 nd         1 L3Z      -0.548100
     19 C9           6.2840     1.3730     0.6920 ca         1 L3Z      -0.111000
     20 C10          4.9320     1.6690     0.6990 ca         1 L3Z      -0.134000
     21 N12          2.6880     0.5170     0.5590 na         1 L3Z      -0.171300
     22 C13          1.7620     1.6310     0.4680 c3         1 L3Z       0.057300
     23 C14          1.5910     2.1030    -0.9740 c3         1 L3Z      -0.104400
     24 O18         -2.8010     1.5700    -0.7850 os         1 L3Z      -0.344900
     25 C20         -4.6050     2.2240     0.6390 ca         1 L3Z      -0.172000
     26 C22         -5.9190     0.5310     1.7300 ca         1 L3Z      -0.146000
     27 C25         -3.1340    -1.1830    -0.1340 cp         1 L3Z       0.481800
     28 N26         -3.7250    -2.2820    -0.5910 nb         1 L3Z      -0.653000
     29 C28         -1.5830    -3.2280    -1.0860 ca         1 L3Z      -0.193300
     30 C29         -0.9580    -2.0980    -0.5750 ca         1 L3Z      -0.117600
     31 H1           6.2290    -2.0270     0.3640 ha         1 L3Z       0.150000
     32 H2           7.8140    -0.1310     0.5730 ha         1 L3Z       0.133000
     33 H3           0.8920     3.8400    -1.9980 hc         1 L3Z       0.045700
     34 H4           0.5260     3.8770    -0.3000 hc         1 L3Z       0.045700
     35 H5          -1.3750     3.4830    -2.1050 hc         1 L3Z       0.061200
     36 H6          -0.7740     1.8430    -2.1650 hc         1 L3Z       0.061200
     37 H7          -1.1580     1.8270     0.4440 h1         1 L3Z       0.023700
     38 H8          -2.0880     3.2880     0.1630 h1         1 L3Z       0.023700
     39 H9          -6.3020     2.6400     1.8710 ha         1 L3Z       0.134000
     40 H10         -5.2920    -1.4890     1.3990 ha         1 L3Z       0.148000
     41 H12         -1.2980    -0.1770     0.3220 ha         1 L3Z       0.138000
     42 H13          0.4760    -0.9480     1.1430 hn         1 L3Z       0.333500
     43 H14          7.0020     2.1780     0.7780 ha         1 L3Z       0.130000
     44 H15          4.5820     2.6890     0.7920 ha         1 L3Z       0.134000
     45 H16          0.8180     1.3300     0.9180 h1         1 L3Z       0.053200
     46 H17          2.1450     2.4410     1.0910 h1         1 L3Z       0.053200
     47 H18          1.3330     1.2490    -1.6080 hc         1 L3Z       0.060200
     48 H19          2.5640     2.4540    -1.3230 hc         1 L3Z       0.060200
     49 H20         -4.4320     3.2650     0.3950 ha         1 L3Z       0.140000
     50 H21         -6.7530     0.2500     2.3580 ha         1 L3Z       0.138000
     51 H22         -1.0200    -4.0590    -1.4860 ha         1 L3Z       0.164000
     52 H11         -3.4900    -4.1500    -1.4100 h4         1 L3Z       0.027100
@<TRIPOS>BOND
     1     1    16 2   
     2     1    17 1   
     3     1    30 1   
     4     2    17 1   
     5     2    18 2   
     6     2    21 1   
     7     3     4 ar  
     8     3     6 ar  
     9     3    18 1   
    10     4     5 ar  
    11     4    31 1   
    12     5    19 ar  
    13     5    32 1   
    14     6    20 ar  
    15     6    21 1   
    16     7     8 1   
    17     7    23 1   
    18     7    33 1   
    19     7    34 1   
    20     8     9 1   
    21     8    35 1   
    22     8    36 1   
    23     9    24 1   
    24     9    37 1   
    25     9    38 1   
    26    10    13 ar  
    27    10    24 1   
    28    10    25 ar  
    29    11    25 ar  
    30    11    26 ar  
    31    11    39 1   
    32    12    13 ar  
    33    12    26 ar  
    34    12    40 1   
    35    13    27 1   
    36    14    28 ar  
    37    14    29 ar  
    38    14    52 1   
    39    15    27 ar  
    40    15    30 ar  
    41    15    41 1   
    42    17    42 1   
    43    19    20 ar  
    44    19    43 1   
    45    20    44 1   
    46    21    22 1   
    47    22    23 1   
    48    22    45 1   
    49    22    46 1   
    50    23    47 1   
    51    23    48 1   
    52    25    49 1   
    53    26    50 1   
    54    27    28 ar  
    55    29    30 ar  
    56    29    51 1   
@<TRIPOS>SUBSTRUCTURE
     1 L3Z         1 TEMP              0 ****  ****    0 ROOT
