@<TRIPOS>MOLECULE
L40
   49    50     1     0     0
SMALL
abcg2


@<TRIPOS>ATOM
      1 C15          3.3310    -2.6200    -0.9260 ca         1 L40      -0.115000
      2 C14          4.1590    -1.6440    -0.4010 ca         1 L40      -0.025000
      3 C12          2.2100    -0.4900     0.4400 ca         1 L40      -0.011000
      4 C4          -4.3910    -0.1290     0.0750 cc         1 L40      -0.267600
      5 C3          -3.2060     0.3640    -0.5610 cc         1 L40      -0.002300
      6 C11          1.3910    -1.4600    -0.1260 ca         1 L40      -0.058000
      7 C16          1.9450    -2.5450    -0.8160 ca         1 L40      -0.054300
      8 C13          3.5830    -0.5820     0.2810 ca         1 L40      -0.300500
      9 C7          -2.1510    -0.3280    -0.0040 cd         1 L40      -0.279600
     10 C5          -3.9940    -1.1000     1.0030 cd         1 L40      -0.054300
     11 C8          -0.7200    -0.2440    -0.2990 c          1 L40       0.650700
     12 C26         -4.7590    -1.9240     1.9750 c3         1 L40      -0.038800
     13 C29         -6.1860     1.3140    -1.0760 c3         1 L40      -0.191100
     14 C2          -3.0690     1.4130    -1.6220 c3         1 L40      -0.018100
     15 N6          -2.6640    -1.2050     0.9250 na         1 L40      -0.094000
     16 N10         -0.0010    -1.3670     0.0180 ns         1 L40      -0.173000
     17 N21          4.6460     1.8990    -0.2150 n7         1 L40      -0.857300
     18 O28         -6.6710    -0.3700     0.5030 o          1 L40      -0.557100
     19 O9          -0.2020     0.7460    -0.7870 o          1 L40      -0.573100
     20 O19          3.9440     1.2720     2.0880 o          1 L40      -0.533500
     21 O20          5.9650     0.2050     1.0280 o          1 L40      -0.533500
     22 C17          1.0710    -3.5950    -1.4300 c3         1 L40      -0.058800
     23 S18          4.6080     0.7120     0.9220 sy         1 L40       1.149600
     24 H1           3.7710    -3.4590    -1.4500 ha         1 L40       0.119000
     25 H2           5.2310    -1.7240    -0.5180 ha         1 L40       0.140000
     26 H3           1.7720     0.3160     1.0100 ha         1 L40       0.149000
     27 H4          -5.4490    -2.5980     1.4670 hc         1 L40       0.061367
     28 H5          -4.0810    -2.5250     2.5790 hc         1 L40       0.061367
     29 H6          -5.3520    -1.3020     2.6430 hc         1 L40       0.061367
     30 H7          -6.0040     0.9960    -2.1040 hc         1 L40       0.060700
     31 H8          -7.2460     1.5380    -0.9720 hc         1 L40       0.060700
     32 H9          -5.6150     2.2270    -0.9110 hc         1 L40       0.060700
     33 H10         -2.8010     3.5540    -1.8380 hc         1 L40       0.039033
     34 H11         -3.6940     3.1050    -0.3880 hc         1 L40       0.039033
     35 H12         -1.9530     2.8560    -0.4570 hc         1 L40       0.039033
     36 H13         -2.2150     1.1780    -2.2560 hc         1 L40       0.053200
     37 H14         -3.9370     1.4030    -2.2790 hc         1 L40       0.053200
     38 H15          2.6630     1.9620    -1.0270 h1         1 L40       0.056700
     39 H16          2.9800     3.0410     0.3460 h1         1 L40       0.056700
     40 H17          3.6660     3.4040    -1.2320 h1         1 L40       0.056700
     41 H18         -2.1170    -1.7740     1.5530 hn         1 L40       0.350000
     42 H19         -0.5010    -2.2340     0.1410 hn         1 L40       0.150000
     43 H20          5.1940     1.6260    -1.0240 hn         1 L40       0.478000
     44 H21          0.5140    -4.1560    -0.6750 hc         1 L40       0.049367
     45 H22          0.3390    -3.1550    -2.1090 hc         1 L40       0.049367
     46 H23          1.6630    -4.3130    -1.9920 hc         1 L40       0.049367
     47 C27         -5.8000     0.2220    -0.1150 c          1 L40       0.613700
     48 C22          3.4120     2.5980    -0.5480 c3         1 L40       0.174100
     49 C1          -2.8710     2.8130    -1.0410 c3         1 L40      -0.084100
@<TRIPOS>BOND
     1     1     2 ar  
     2     1     7 ar  
     3     1    24 1   
     4     2     8 ar  
     5     2    25 1   
     6     3     6 ar  
     7     3     8 ar  
     8     3    26 1   
     9     4     5 1   
    10     4    10 2   
    11     4    47 1   
    12     5     9 2   
    13     5    14 1   
    14     6     7 ar  
    15     6    16 1   
    16     7    22 1   
    17     8    23 1   
    18     9    11 1   
    19     9    15 1   
    20    10    12 1   
    21    10    15 1   
    22    11    16 1   
    23    11    19 2   
    24    12    27 1   
    25    12    28 1   
    26    12    29 1   
    27    13    30 1   
    28    13    31 1   
    29    13    32 1   
    30    13    47 1   
    31    14    36 1   
    32    14    37 1   
    33    14    49 1   
    34    15    41 1   
    35    16    42 1   
    36    17    23 1   
    37    17    43 1   
    38    17    48 1   
    39    18    47 2   
    40    20    23 2   
    41    21    23 2   
    42    22    44 1   
    43    22    45 1   
    44    22    46 1   
    45    33    49 1   
    46    34    49 1   
    47    35    49 1   
    48    38    48 1   
    49    39    48 1   
    50    40    48 1   
@<TRIPOS>SUBSTRUCTURE
     1 L40         1 TEMP              0 ****  ****    0 ROOT
