@<TRIPOS>MOLECULE
L40
   49    50     1     0     0
SMALL
No Charge or Current Charge


@<TRIPOS>ATOM
      1 C15          3.3300    -2.6380    -0.0350 ca         1 L40      -0.115000
      2 C14          4.1500    -1.5070     0.0910 ca         1 L40      -0.025000
      3 C12          2.1690    -0.0870     0.1020 ca         1 L40      -0.011000
      4 C4          -4.6690    -0.3820    -0.1820 cc         1 L40      -0.267600
      5 C3          -3.4800     0.3910    -0.4520 cc         1 L40      -0.002300
      6 C11          1.3380    -1.2230    -0.0380 ca         1 L40      -0.058000
      7 C16          1.9290    -2.5090    -0.0970 ca         1 L40      -0.054300
      8 C13          3.5720    -0.2260     0.1650 ca         1 L40      -0.300500
      9 C7          -2.3840    -0.4300    -0.2330 cd         1 L40      -0.279600
     10 C5          -4.2770    -1.6570     0.1740 cd         1 L40      -0.054300
     11 C8          -0.9330    -0.0530    -0.3510 c          1 L40       0.650700
     12 C26         -5.0760    -2.8810     0.5610 c3         1 L40      -0.038800
     13 C29         -6.5920     1.4210    -0.6050 c3         1 L40      -0.191100
     14 C2          -3.4240     1.8430    -0.8940 c3         1 L40      -0.018100
     15 N6          -2.8900    -1.6830     0.1400 na         1 L40      -0.094000
     16 N10         -0.0830    -1.1230    -0.0960 ns         1 L40      -0.173000
     17 N21          5.0300     1.4530    -1.2640 n7         1 L40      -0.857300
     18 O28         -7.0140    -0.7950     0.0230 o          1 L40      -0.557100
     19 O9          -0.5300     1.0630    -0.6470 o          1 L40      -0.573100
     20 O19          3.8150     2.3770     0.7350 o          1 L40      -0.533500
     21 O20          5.8670     0.8440     1.0160 o          1 L40      -0.533500
     22 C17          1.0720    -3.7650    -0.2350 c3         1 L40      -0.058800
     23 S18          4.6240     1.2220     0.3380 sy         1 L40       1.149600
     24 H1           3.7910    -3.6220    -0.0860 ha         1 L40       0.119000
     25 H2           5.2310    -1.6310     0.1340 ha         1 L40       0.140000
     26 H3           1.7360     0.9070     0.1800 ha         1 L40       0.149000
     27 H4          -5.7470    -3.1870    -0.2490 hc         1 L40       0.061367
     28 H5          -4.4250    -3.7340     0.7850 hc         1 L40       0.061367
     29 H6          -5.6830    -2.6900     1.4540 hc         1 L40       0.061367
     30 H7          -6.3530     1.6040    -1.6570 hc         1 L40       0.060700
     31 H8          -7.6680     1.5540    -0.4460 hc         1 L40       0.060700
     32 H9          -6.0210     2.1700    -0.0520 hc         1 L40       0.060700
     33 H10         -3.2820     3.8640    -0.0780 hc         1 L40       0.039033
     34 H11         -4.0760     2.7060     1.0140 hc         1 L40       0.039033
     35 H12         -2.3180     2.6610     0.8030 hc         1 L40       0.039033
     36 H13         -2.5890     1.9930    -1.5850 hc         1 L40       0.053200
     37 H14         -4.2800     2.1220    -1.5070 hc         1 L40       0.053200
     38 H15          4.6550     3.5460    -1.5000 h1         1 L40       0.056700
     39 H16          6.3450     3.1260    -1.1380 h1         1 L40       0.056700
     40 H17          5.6810     2.8250    -2.7550 h1         1 L40       0.056700
     41 H18         -2.3380    -2.5030     0.3710 hn         1 L40       0.350000
     42 H19         -0.5560    -1.9970     0.0840 hn         1 L40       0.150000
     43 H20          4.1680     1.1860    -1.7380 hn         1 L40       0.478000
     44 H21          0.4200    -3.8950     0.6370 hc         1 L40       0.049367
     45 H22          0.4390    -3.7160    -1.1290 hc         1 L40       0.049367
     46 H23          1.6850    -4.6690    -0.3220 hc         1 L40       0.049367
     47 C27         -6.1290     0.0120    -0.2360 c          1 L40       0.613700
     48 C22          5.4460     2.8060    -1.6820 c3         1 L40       0.174100
     49 C1          -3.2680     2.8290     0.2840 c3         1 L40      -0.084100
@<TRIPOS>BOND
     1     1     2 ar  
     2     1     7 ar  
     3     1    24 1   
     4     2     8 ar  
     5     2    25 1   
     6     3     6 ar  
     7     3     8 ar  
     8     3    26 1   
     9     4     5 1   
    10     4    10 2   
    11     4    47 1   
    12     5     9 2   
    13     5    14 1   
    14     6     7 ar  
    15     6    16 1   
    16     7    22 1   
    17     8    23 1   
    18     9    11 1   
    19     9    15 1   
    20    10    12 1   
    21    10    15 1   
    22    11    16 1   
    23    11    19 2   
    24    12    27 1   
    25    12    28 1   
    26    12    29 1   
    27    13    30 1   
    28    13    31 1   
    29    13    32 1   
    30    13    47 1   
    31    14    36 1   
    32    14    37 1   
    33    14    49 1   
    34    15    41 1   
    35    16    42 1   
    36    17    23 1   
    37    17    43 1   
    38    17    48 1   
    39    18    47 2   
    40    20    23 2   
    41    21    23 2   
    42    22    44 1   
    43    22    45 1   
    44    22    46 1   
    45    33    49 1   
    46    34    49 1   
    47    35    49 1   
    48    38    48 1   
    49    39    48 1   
    50    40    48 1   
@<TRIPOS>SUBSTRUCTURE
     1 L40         1 TEMP              0 ****  ****    0 ROOT
