@<TRIPOS>MOLECULE
L41
   54    55     1     0     0
SMALL
No Charge or Current Charge


@<TRIPOS>ATOM
      1 C1          -5.0270    -0.6100    -0.2930 ca         1 L41      -0.187300
      2 C2          -3.9010     0.2320    -0.1880 ca         1 L41       0.228100
      3 C3          -6.3210    -0.0460    -0.2180 ca         1 L41       0.257100
      4 C4          -4.8340    -2.1250    -0.4670 c3         1 L41      -0.006100
      5 C5          -4.0790     1.6170    -0.0260 ca         1 L41      -0.260000
      6 O6          -2.6420    -0.3350    -0.2430 os         1 L41      -0.337100
      7 C7          -6.5060     1.3470    -0.0540 ca         1 L41      -0.344600
      8 O8          -7.4080    -0.8610    -0.2990 oh         1 L41      -0.547100
      9 C9          -4.6940    -2.8520     0.8880 c3         1 L41      -0.071400
     10 C10         -5.3630     2.1700     0.0380 ca         1 L41       0.014000
     11 C11         -1.4380     0.4380    -0.1210 c3         1 L41       0.163600
     12 C12         -7.8940     1.9570     0.0240 c          1 L41       0.610700
     13 C13         -4.4850    -4.3710     0.7440 c3         1 L41      -0.088100
     14 C14         -0.2520    -0.5370    -0.2150 c3         1 L41      -0.088400
     15 C15         -8.0660     3.4660     0.1980 c3         1 L41      -0.189100
     16 O16         -8.8900     1.2460    -0.0520 o          1 L41      -0.587100
     17 C17          1.1070     0.1740    -0.0950 c3         1 L41       0.173600
     18 O18          2.1330    -0.8280    -0.1950 os         1 L41      -0.356100
     19 C19          3.4750    -0.5150    -0.1240 ca         1 L41       0.057100
     20 C20          3.9410     0.8070     0.0520 ca         1 L41      -0.131500
     21 C21          4.4010    -1.5670    -0.2330 ca         1 L41      -0.131500
     22 C22          5.3230     1.0610     0.1170 ca         1 L41      -0.157500
     23 C23          5.7840    -1.3110    -0.1680 ca         1 L41      -0.157500
     24 C24          6.2500     0.0100     0.0080 ca         1 L41       0.147100
     25 O25          7.5930     0.3220     0.0790 os         1 L41      -0.294100
     26 C26          8.6270    -0.6870    -0.0220 c3         1 L41       0.000600
     27 C27         10.0680    -0.1040     0.0860 c          1 L41       0.729000
     28 O28         11.0040    -0.8900     0.0100 o          1 L41      -0.712000
     29 O29         10.2230     1.1020     0.2400 o          1 L41      -0.712000
     30 H4          -5.6660    -2.5680    -1.0270 hc         1 L41       0.052700
     31 H4A         -3.9450    -2.3320    -1.0760 hc         1 L41       0.052700
     32 H5          -3.2290     2.2880     0.0550 ha         1 L41       0.125000
     33 HO8         -8.1940    -0.2610    -0.2250 ho         1 L41       0.516000
     34 H9          -3.8480    -2.4260     1.4420 hc         1 L41       0.040700
     35 H9A         -5.5930    -2.6690     1.4900 hc         1 L41       0.040700
     36 H10         -5.4460     3.2470     0.1650 ha         1 L41       0.109000
     37 H11         -1.3690     1.1800    -0.9270 h1         1 L41       0.038700
     38 H11A        -1.4080     0.9600     0.8450 h1         1 L41       0.038700
     39 H13         -4.3930    -4.8400     1.7310 hc         1 L41       0.029700
     40 H13A        -5.3340    -4.8320     0.2230 hc         1 L41       0.029700
     41 H13B        -3.5720    -4.5850     0.1750 hc         1 L41       0.029700
     42 H14         -0.3380    -1.2870     0.5800 hc         1 L41       0.069700
     43 H14A        -0.2970    -1.0670    -1.1740 hc         1 L41       0.069700
     44 H15         -7.5330     3.9830    -0.6070 hc         1 L41       0.063033
     45 H15A        -9.1190     3.7660     0.2360 hc         1 L41       0.063033
     46 H15B        -7.5270     3.7870     1.0960 hc         1 L41       0.063033
     47 H17          1.2060     0.9140    -0.9000 h1         1 L41       0.028200
     48 H17A         1.1640     0.6920     0.8720 h1         1 L41       0.028200
     49 H20          3.2530     1.6430     0.1400 ha         1 L41       0.104000
     50 H21          4.0460    -2.5850    -0.3690 ha         1 L41       0.104000
     51 H22          5.6810     2.0790     0.2520 ha         1 L41       0.125500
     52 H23          6.4740    -2.1450    -0.2560 ha         1 L41       0.125500
     53 H26          8.5100    -1.4290     0.7790 h1         1 L41       0.015700
     54 H26A         8.5520    -1.2090    -0.9850 h1         1 L41       0.015700
@<TRIPOS>BOND
     1     1     2 ar  
     2     1     3 ar  
     3     1     4 1   
     4     2     5 ar  
     5     2     6 1   
     6     3     7 ar  
     7     3     8 1   
     8     4     9 1   
     9     4    30 1   
    10     4    31 1   
    11     5    10 ar  
    12     5    32 1   
    13     6    11 1   
    14     7    10 ar  
    15     7    12 1   
    16     8    33 1   
    17     9    13 1   
    18     9    34 1   
    19     9    35 1   
    20    10    36 1   
    21    11    14 1   
    22    11    37 1   
    23    11    38 1   
    24    12    15 1   
    25    12    16 2   
    26    13    39 1   
    27    13    40 1   
    28    13    41 1   
    29    14    17 1   
    30    14    42 1   
    31    14    43 1   
    32    15    44 1   
    33    15    45 1   
    34    15    46 1   
    35    17    18 1   
    36    17    47 1   
    37    17    48 1   
    38    18    19 1   
    39    19    20 ar  
    40    19    21 ar  
    41    20    22 ar  
    42    20    49 1   
    43    21    23 ar  
    44    21    50 1   
    45    22    24 ar  
    46    22    51 1   
    47    23    24 ar  
    48    23    52 1   
    49    24    25 1   
    50    25    26 1   
    51    26    27 1   
    52    26    53 1   
    53    26    54 1   
    54    27    28 1   
    55    27    29 1   
@<TRIPOS>SUBSTRUCTURE
     1 L41         1 TEMP              0 ****  ****    0 ROOT
