@<TRIPOS>MOLECULE
L41
   54    55     1     0     0
SMALL
bcc


@<TRIPOS>ATOM
      1 C1          -4.9480    -0.6100    -0.3170 ca         1 L41      -0.187300
      2 C2          -3.8100     0.2040    -0.2990 ca         1 L41       0.228100
      3 C3          -6.1940    -0.0050    -0.1460 ca         1 L41       0.257100
      4 C4          -4.8270    -2.1020    -0.4620 c3         1 L41      -0.006100
      5 C5          -3.9070     1.5940    -0.1440 ca         1 L41      -0.278000
      6 O6          -2.6410    -0.4330    -0.4350 os         1 L41      -0.313900
      7 C7          -6.3160     1.3980     0.0150 ca         1 L41      -0.344600
      8 O8          -7.2690    -0.7910    -0.1350 oh         1 L41      -0.508100
      9 C9          -4.5750    -2.8080     0.8720 c3         1 L41      -0.071400
     10 C10         -5.1480     2.1650     0.0070 ca         1 L41      -0.004000
     11 C11         -1.4250     0.2910    -0.3300 c3         1 L41       0.140400
     12 C12         -7.6310     2.0060     0.1900 c          1 L41       0.610700
     13 C13         -4.4400    -4.3150     0.7090 c3         1 L41      -0.088100
     14 C14         -0.2920    -0.7140    -0.3780 c3         1 L41      -0.088400
     15 C15         -7.7420     3.4940     0.3560 c3         1 L41      -0.189100
     16 O16         -8.6510     1.3140     0.2010 o          1 L41      -0.587100
     17 C17          1.0420    -0.0070    -0.2370 c3         1 L41       0.150400
     18 O18          2.0580    -0.9900    -0.2810 os         1 L41      -0.332900
     19 C19          3.3480    -0.5910    -0.1750 ca         1 L41       0.057100
     20 C20          3.7570     0.7320    -0.0180 ca         1 L41      -0.149500
     21 C21          4.3170    -1.5880    -0.2290 ca         1 L41      -0.149500
     22 C22          5.1060     1.0360     0.0830 ca         1 L41      -0.175500
     23 C23          5.6660    -1.2820    -0.1290 ca         1 L41      -0.175500
     24 C24          6.0790     0.0410     0.0300 ca         1 L41       0.147100
     25 O25          7.3620     0.4420     0.1400 os         1 L41      -0.270900
     26 C26          8.3820    -0.5340     0.1150 c3         1 L41      -0.022600
     27 C27          9.7640     0.1190     0.2930 c          1 L41       0.939600
     28 O28         10.7050    -0.6980     0.2790 o          1 L41      -0.817300
     29 O29          9.8210     1.3500     0.4280 o          1 L41      -0.817300
     30 H4          -5.7360    -2.5050    -0.9150 hc         1 L41       0.052700
     31 H4A         -4.0170    -2.3440    -1.1530 hc         1 L41       0.052700
     32 H5          -3.0310     2.2270    -0.1410 ha         1 L41       0.143000
     33 HO8         -8.0540    -0.2050    -0.0140 ho         1 L41       0.477000
     34 H9          -3.6670    -2.4060     1.3290 hc         1 L41       0.040700
     35 H9A         -5.3940    -2.5850     1.5610 hc         1 L41       0.040700
     36 H10         -5.2090     3.2380     0.1250 ha         1 L41       0.127000
     37 H11         -1.3370     1.0090    -1.1520 h1         1 L41       0.038700
     38 H11A        -1.3970     0.8520     0.6100 h1         1 L41       0.038700
     39 H13         -4.2300    -4.8020     1.6620 hc         1 L41       0.029700
     40 H13A        -5.3560    -4.7550     0.3090 hc         1 L41       0.029700
     41 H13B        -3.6280    -4.5680     0.0240 hc         1 L41       0.029700
     42 H14         -0.4120    -1.4360     0.4330 hc         1 L41       0.069700
     43 H14A        -0.3220    -1.2620    -1.3230 hc         1 L41       0.069700
     44 H15         -7.3530     4.0140    -0.5210 hc         1 L41       0.063033
     45 H15A        -8.7830     3.7780     0.4970 hc         1 L41       0.063033
     46 H15B        -7.1660     3.8370     1.2160 hc         1 L41       0.063033
     47 H17          1.1760     0.7230    -1.0440 h1         1 L41       0.028200
     48 H17A         1.0780     0.5440     0.7110 h1         1 L41       0.028200
     49 H20          3.0460     1.5440     0.0290 ha         1 L41       0.122000
     50 H21          4.0130    -2.6200    -0.3530 ha         1 L41       0.122000
     51 H22          5.4090     2.0690     0.2050 ha         1 L41       0.143500
     52 H23          6.3790    -2.0940    -0.1780 ha         1 L41       0.143500
     53 H26          8.2330    -1.2740     0.9130 h1         1 L41       0.015700
     54 H26A         8.3700    -1.0860    -0.8330 h1         1 L41       0.015700
@<TRIPOS>BOND
     1     1     2 ar  
     2     1     3 ar  
     3     1     4 1   
     4     2     5 ar  
     5     2     6 1   
     6     3     7 ar  
     7     3     8 1   
     8     4     9 1   
     9     4    30 1   
    10     4    31 1   
    11     5    10 ar  
    12     5    32 1   
    13     6    11 1   
    14     7    10 ar  
    15     7    12 1   
    16     8    33 1   
    17     9    13 1   
    18     9    34 1   
    19     9    35 1   
    20    10    36 1   
    21    11    14 1   
    22    11    37 1   
    23    11    38 1   
    24    12    15 1   
    25    12    16 2   
    26    13    39 1   
    27    13    40 1   
    28    13    41 1   
    29    14    17 1   
    30    14    42 1   
    31    14    43 1   
    32    15    44 1   
    33    15    45 1   
    34    15    46 1   
    35    17    18 1   
    36    17    47 1   
    37    17    48 1   
    38    18    19 1   
    39    19    20 ar  
    40    19    21 ar  
    41    20    22 ar  
    42    20    49 1   
    43    21    23 ar  
    44    21    50 1   
    45    22    24 ar  
    46    22    51 1   
    47    23    24 ar  
    48    23    52 1   
    49    24    25 1   
    50    25    26 1   
    51    26    27 1   
    52    26    53 1   
    53    26    54 1   
    54    27    28 1   
    55    27    29 1   
@<TRIPOS>SUBSTRUCTURE
     1 L41         1 TEMP              0 ****  ****    0 ROOT
