@<TRIPOS>MOLECULE
L42
   49    50     1     0     0
SMALL
abcg2


@<TRIPOS>ATOM
      1 OBM         -3.2710     3.2080    -0.3440 oh         1 L42      -0.634000
      2 CBE         -2.4560     2.2240    -0.8540 c6         1 L42       0.397300
      3 CBF         -1.3570     1.9130     0.1620 c6         1 L42       0.067700
      4 NBN         -0.4940     3.0430     0.3720 ns         1 L42      -0.493900
      5 CBK         -0.1080     3.4800     1.5890 c          1 L42       0.617100
      6 CBL          1.0190     4.4810     1.5640 c3         1 L42      -0.183100
      7 OBS         -0.6090     3.0890     2.6320 o          1 L42      -0.586100
      8 OBQ         -3.2300     1.0730    -1.0850 os         1 L42      -0.470000
      9 CBI         -2.4990     0.0040    -1.6490 c6         1 L42       0.171300
     10 CBJ         -3.4710    -1.0880    -2.0380 c3         1 L42       0.155600
     11 OBR         -4.3210    -0.5900    -3.0460 oh         1 L42      -0.742000
     12 CBH         -1.4270    -0.4690    -0.6700 c6         1 L42       0.189300
     13 OBP         -2.0510    -0.9290     0.5190 os         1 L42      -0.585700
     14 SBW         -1.7720    -2.4640     1.0480 s6         1 L42       1.499300
     15 OBV         -1.9850    -3.3270    -0.1180 o          1 L42      -0.708533
     16 OBU         -0.4040    -2.4880     1.5590 o          1 L42      -0.708533
     17 OBT         -2.8050    -2.5650     2.0790 o          1 L42      -0.708533
     18 CBG         -0.5350     0.7210    -0.3350 c6         1 L42       0.158300
     19 OBO          0.4130     0.3990     0.6480 os         1 L42      -0.384000
     20 CBX          1.7050     0.2650     0.2060 c6         1 L42       0.403300
     21 OCH          1.7610    -0.8610    -0.6450 os         1 L42      -0.333100
     22 CCD          2.9930    -1.2950    -0.9930 ce         1 L42       0.078900
     23 CCE          2.9930    -2.2370    -2.1930 c          1 L42       0.724200
     24 OCG          1.8880    -2.4680    -2.7080 o          1 L42      -0.701500
     25 OCF          4.1050    -2.6810    -2.5370 o          1 L42      -0.701500
     26 CCC          4.0930    -0.9280    -0.3330 c2         1 L42      -0.446200
     27 CCA          4.0570    -0.0300     0.8670 c6         1 L42       0.190500
     28 OCB          4.8610    -0.5110     1.9290 oh         1 L42      -0.672000
     29 CBY          2.6320     0.0840     1.3960 c6         1 L42       0.138300
     30 OBZ          2.4670     1.1790     2.2560 oh         1 L42      -0.718000
     31 HBM         -3.7830     3.6010    -1.0590 ho         1 L42       0.433000
     32 HBE         -1.9900     2.5370    -1.8080 h2         1 L42      -0.014300
     33 HBF         -1.8270     1.6610     1.1150 h1         1 L42       0.144700
     34 HBN         -0.0060     3.4080    -0.4320 hn         1 L42       0.285500
     35 HBG         -0.0390     1.0240    -1.2690 h1         1 L42       0.022700
     36 HBL1         1.0630     5.0510     0.6370 hc         1 L42       0.048033
     37 HBL2         0.9320     5.1700     2.4010 hc         1 L42       0.048033
     38 HBL3         1.9590     3.9370     1.6700 hc         1 L42       0.048033
     39 HBI         -1.9800     0.3410    -2.5610 h1         1 L42       0.025700
     40 HBJ1        -2.8910    -1.9510    -2.3850 h1         1 L42       0.064700
     41 HBJ2        -4.0350    -1.4130    -1.1560 h1         1 L42       0.064700
     42 HBH         -0.8190    -1.2460    -1.1440 h1         1 L42       0.108700
     43 HBR         -4.9570    -1.2780    -3.2620 ho         1 L42       0.486000
     44 HBX          2.0170     1.1510    -0.3770 h2         1 L42      -0.004300
     45 HBY          2.3620    -0.8650     1.8870 h1         1 L42       0.108700
     46 HCC          5.0510    -1.2860    -0.6840 ha         1 L42       0.195000
     47 HCA          4.3890     0.9800     0.5810 h1         1 L42       0.000700
     48 HCB          5.7830    -0.3530     1.7040 ho         1 L42       0.424000
     49 HBZ          3.1130     1.0940     2.9660 ho         1 L42       0.496000
@<TRIPOS>BOND
     1     1     2 1   
     2     1    31 1   
     3     2     3 1   
     4     2     8 1   
     5     2    32 1   
     6     3     4 1   
     7     3    18 1   
     8     3    33 1   
     9     4     5 1   
    10     4    34 1   
    11     5     6 1   
    12     5     7 2   
    13     6    36 1   
    14     6    37 1   
    15     6    38 1   
    16     8     9 1   
    17     9    10 1   
    18     9    12 1   
    19     9    39 1   
    20    10    11 1   
    21    10    40 1   
    22    10    41 1   
    23    11    43 1   
    24    12    13 1   
    25    12    18 1   
    26    12    42 1   
    27    13    14 1   
    28    14    15 1   
    29    14    16 1   
    30    14    17 1   
    31    18    19 1   
    32    18    35 1   
    33    19    20 1   
    34    20    21 1   
    35    20    29 1   
    36    20    44 1   
    37    21    22 1   
    38    22    23 1   
    39    22    26 2   
    40    23    24 1   
    41    23    25 1   
    42    26    27 1   
    43    26    46 1   
    44    27    28 1   
    45    27    29 1   
    46    27    47 1   
    47    28    48 1   
    48    29    30 1   
    49    29    45 1   
    50    30    49 1   
@<TRIPOS>SUBSTRUCTURE
     1 L42         1 TEMP              0 ****  ****    0 ROOT
