@<TRIPOS>MOLECULE
L42
   49    50     1     0     0
SMALL
No Charge or Current Charge


@<TRIPOS>ATOM
      1 OBM         -3.3810     3.3100    -0.6340 oh         1 L42      -0.634000
      2 CBE         -2.4120     2.3440    -0.9870 c6         1 L42       0.397300
      3 CBF         -1.4320     2.0560     0.1900 c6         1 L42       0.067700
      4 NBN         -0.6320     3.2540     0.5620 ns         1 L42      -0.493900
      5 CBK         -0.2690     3.6030     1.8420 c          1 L42       0.617100
      6 CBL          0.6320     4.8300     1.9350 c3         1 L42      -0.183100
      7 OBS         -0.6530     2.9930     2.8290 o          1 L42      -0.586100
      8 OBQ         -3.1620     1.1760    -1.3170 os         1 L42      -0.470000
      9 CBI         -2.3460     0.0490    -1.7430 c6         1 L42       0.171300
     10 CBJ         -3.2940    -1.0970    -2.2270 c3         1 L42       0.155600
     11 OBR         -4.1530    -0.7060    -3.3240 oh         1 L42      -0.742000
     12 CBH         -1.3670    -0.3960    -0.6030 c6         1 L42       0.189300
     13 OBP         -2.1150    -0.8520     0.5570 os         1 L42      -0.585700
     14 SBW         -1.9020    -2.3940     1.0830 s6         1 L42       1.499300
     15 OBV         -2.1220    -3.2120    -0.1170 o          1 L42      -0.708533
     16 OBU         -0.5230    -2.4210     1.5840 o          1 L42      -0.708533
     17 OBT         -2.9290    -2.5540     2.1220 o          1 L42      -0.708533
     18 CBG         -0.5200     0.8730    -0.2460 c6         1 L42       0.158300
     19 OBO          0.5010     0.5950     0.7430 os         1 L42      -0.384000
     20 CBX          1.8130     0.2930     0.2160 c6         1 L42       0.403300
     21 OCH          1.7470    -0.8920    -0.6100 os         1 L42      -0.333100
     22 CCD          2.9250    -1.5550    -0.9520 ce         1 L42       0.078900
     23 CCE          2.7910    -2.6390    -2.0380 c          1 L42       0.724200
     24 OCG          1.6920    -2.8420    -2.5430 o          1 L42      -0.701500
     25 OCF          3.7910    -3.2630    -2.3800 o          1 L42      -0.701500
     26 CCC          4.1090    -1.2340    -0.3590 c2         1 L42      -0.446200
     27 CCA          4.2270    -0.1650     0.6970 c6         1 L42       0.190500
     28 OCB          5.1890    -0.5750     1.6640 oh         1 L42      -0.672000
     29 CBY          2.8510     0.1020     1.3640 c6         1 L42       0.138300
     30 OBZ          2.9490     1.2290     2.2770 oh         1 L42      -0.718000
     31 HBM         -4.2040     2.9550    -1.0270 ho         1 L42       0.433000
     32 HBE         -1.8570     2.6850    -1.8730 h2         1 L42      -0.014300
     33 HBF         -2.0300     1.7360     1.0550 h1         1 L42       0.144700
     34 HBN         -0.2840     3.8490    -0.1800 hn         1 L42       0.285500
     35 HBG         -0.0080     1.2000    -1.1630 h1         1 L42       0.022700
     36 HBL1         0.1560     5.6650     1.4100 hc         1 L42       0.048033
     37 HBL2         0.8850     5.0920     2.9680 hc         1 L42       0.048033
     38 HBL3         1.5300     4.6570     1.3300 hc         1 L42       0.048033
     39 HBI         -1.7490     0.3670    -2.6100 h1         1 L42       0.025700
     40 HBJ1        -2.6670    -1.9510    -2.5240 h1         1 L42       0.064700
     41 HBJ2        -3.8990    -1.4220    -1.3700 h1         1 L42       0.064700
     42 HBH         -0.7070    -1.1910    -0.9840 h1         1 L42       0.108700
     43 HBR         -4.7620    -1.4610    -3.4980 ho         1 L42       0.486000
     44 HBX          2.1430     1.1350    -0.4090 h2         1 L42      -0.004300
     45 HBY          2.5570    -0.8070     1.9110 h1         1 L42       0.108700
     46 HCC          5.0260    -1.7500    -0.6440 ha         1 L42       0.195000
     47 HCA          4.5670     0.7590     0.2080 h1         1 L42       0.000700
     48 HCB          6.0220    -0.7330     1.1700 ho         1 L42       0.424000
     49 HBZ          3.8090     1.1010     2.7430 ho         1 L42       0.496000
@<TRIPOS>BOND
     1     1     2 1   
     2     1    31 1   
     3     2     3 1   
     4     2     8 1   
     5     2    32 1   
     6     3     4 1   
     7     3    18 1   
     8     3    33 1   
     9     4     5 1   
    10     4    34 1   
    11     5     6 1   
    12     5     7 2   
    13     6    36 1   
    14     6    37 1   
    15     6    38 1   
    16     8     9 1   
    17     9    10 1   
    18     9    12 1   
    19     9    39 1   
    20    10    11 1   
    21    10    40 1   
    22    10    41 1   
    23    11    43 1   
    24    12    13 1   
    25    12    18 1   
    26    12    42 1   
    27    13    14 1   
    28    14    15 1   
    29    14    16 1   
    30    14    17 1   
    31    18    19 1   
    32    18    35 1   
    33    19    20 1   
    34    20    21 1   
    35    20    29 1   
    36    20    44 1   
    37    21    22 1   
    38    22    23 1   
    39    22    26 2   
    40    23    24 1   
    41    23    25 1   
    42    26    27 1   
    43    26    46 1   
    44    27    28 1   
    45    27    29 1   
    46    27    47 1   
    47    28    48 1   
    48    29    30 1   
    49    29    45 1   
    50    30    49 1   
@<TRIPOS>SUBSTRUCTURE
     1 L42         1 TEMP              0 ****  ****    0 ROOT
