@<TRIPOS>MOLECULE
L43
   29    31     1     0     0
SMALL
abcg2


@<TRIPOS>ATOM
      1 N1           6.1580    -0.0720     0.3330 nc         1 L43      -0.053000
      2 C2          -2.4990     0.2860     0.2240 ca         1 L43      -0.062000
      3 N2           6.0180     1.1280    -0.0730 nd         1 L43      -0.225800
      4 N3           4.7200     1.3170    -0.2340 na         1 L43      -0.217700
      5 C4          -0.1400    -0.4870    -0.0230 cp         1 L43       0.045000
      6 C5           0.7470    -1.4760     0.4100 ca         1 L43      -0.118500
      7 C7           2.6300    -0.0190     0.0450 ca         1 L43      -0.185500
      8 C6           2.1100    -1.2500     0.4450 ca         1 L43      -0.076000
      9 C8           4.0690     0.1940     0.0860 cd         1 L43       0.486000
     10 C1          -3.8730     0.0760     0.1810 ca         1 L43      -0.139600
     11 C10          0.3920     0.7420    -0.4180 ca         1 L43      -0.118500
     12 C11         -2.0910    -1.9950    -0.4030 ca         1 L43      -0.114000
     13 C12         -3.4580    -2.2170    -0.4500 ca         1 L43      -0.150000
     14 C13         -4.3450    -1.1890    -0.1610 ca         1 L43      -0.067000
     15 C3          -1.5930    -0.7340    -0.0660 cp         1 L43      -0.107000
     16 C9           1.7550     0.9750    -0.3870 ca         1 L43      -0.076000
     17 N            4.9820    -0.6830     0.4430 nc         1 L43      -0.405000
     18 O           -6.0530     0.9490     0.4080 o          1 L43      -0.717000
     19 O1          -4.3320     2.2960     0.8460 o          1 L43      -0.717000
     20 H           -2.1350     1.2640     0.5120 ha         1 L43       0.130000
     21 H3           4.3720     2.2120    -0.5480 hn         1 L43       0.385000
     22 H1           0.3690    -2.4330     0.7460 ha         1 L43       0.128000
     23 H2           2.7720    -2.0320     0.7910 ha         1 L43       0.112000
     24 H5          -0.2630     1.5240    -0.7780 ha         1 L43       0.128000
     25 H6          -1.4100    -2.8000    -0.6510 ha         1 L43       0.088000
     26 H7          -3.8320    -3.1960    -0.7210 ha         1 L43       0.091000
     27 H8          -5.4120    -1.3660    -0.2010 ha         1 L43       0.131000
     28 H4           2.1190     1.9390    -0.7160 ha         1 L43       0.112000
     29 C           -4.8390     1.2090     0.5080 c          1 L43       0.713600
@<TRIPOS>BOND
     1     1     3 2   
     2     1    17 1   
     3     2    10 ar  
     4     2    15 ar  
     5     2    20 1   
     6     3     4 1   
     7     4     9 1   
     8     4    21 1   
     9     5     6 ar  
    10     5    11 ar  
    11     5    15 1   
    12     6     8 ar  
    13     6    22 1   
    14     7     8 ar  
    15     7     9 1   
    16     7    16 ar  
    17     8    23 1   
    18     9    17 2   
    19    10    14 ar  
    20    10    29 1   
    21    11    16 ar  
    22    11    24 1   
    23    12    13 ar  
    24    12    15 ar  
    25    12    25 1   
    26    13    14 ar  
    27    13    26 1   
    28    14    27 1   
    29    16    28 1   
    30    18    29 1   
    31    19    29 1   
@<TRIPOS>SUBSTRUCTURE
     1 L43         1 TEMP              0 ****  ****    0 ROOT
