@<TRIPOS>MOLECULE
L43
   29    31     1     0     0
SMALL
No Charge or Current Charge


@<TRIPOS>ATOM
      1 N1           6.2590    -0.0490     0.3710 nc         1 L43      -0.053000
      2 C2          -2.5400     0.2980     0.2250 ca         1 L43      -0.062000
      3 N2           6.1460     1.1730    -0.0720 nd         1 L43      -0.225800
      4 N3           4.8110     1.3560    -0.2530 na         1 L43      -0.217700
      5 C4          -0.1390    -0.4930    -0.0320 cp         1 L43       0.045000
      6 C5           0.7580    -1.4980     0.4040 ca         1 L43      -0.118500
      7 C7           2.6840    -0.0280     0.0510 ca         1 L43      -0.185500
      8 C6           2.1440    -1.2720     0.4460 ca         1 L43      -0.076000
      9 C8           4.1440     0.2120     0.0940 cd         1 L43       0.486000
     10 C1          -3.9380     0.0840     0.1890 ca         1 L43      -0.139600
     11 C10          0.4130     0.7500    -0.4270 ca         1 L43      -0.118500
     12 C11         -2.1360    -2.0100    -0.4170 ca         1 L43      -0.114000
     13 C12         -3.5190    -2.2370    -0.4580 ca         1 L43      -0.150000
     14 C13         -4.4160    -1.2000    -0.1580 ca         1 L43      -0.067000
     15 C3          -1.6170    -0.7380    -0.0760 cp         1 L43      -0.107000
     16 C9           1.7990     0.9810    -0.3870 ca         1 L43      -0.076000
     17 N            5.0400    -0.6740     0.4860 nc         1 L43      -0.405000
     18 O           -6.1060     0.9770     0.4880 o          1 L43      -0.717000
     19 O1          -4.4520     2.3090     0.8020 o          1 L43      -0.717000
     20 H           -2.1590     1.2770     0.5040 ha         1 L43       0.130000
     21 H3           4.4120     2.2200    -0.5950 hn         1 L43       0.385000
     22 H1           0.3740    -2.4620     0.7270 ha         1 L43       0.128000
     23 H2           2.7960    -2.0720     0.7920 ha         1 L43       0.112000
     24 H5          -0.2400     1.5420    -0.7820 ha         1 L43       0.128000
     25 H6          -1.4620    -2.8260    -0.6660 ha         1 L43       0.088000
     26 H7          -3.8990    -3.2200    -0.7260 ha         1 L43       0.091000
     27 H8          -5.4850    -1.3990    -0.1960 ha         1 L43       0.131000
     28 H4           2.1740     1.9510    -0.7040 ha         1 L43       0.112000
     29 C           -4.9060     1.2090     0.5180 c          1 L43       0.713600
@<TRIPOS>BOND
     1     1     3 2   
     2     1    17 1   
     3     2    10 ar  
     4     2    15 ar  
     5     2    20 1   
     6     3     4 1   
     7     4     9 1   
     8     4    21 1   
     9     5     6 ar  
    10     5    11 ar  
    11     5    15 1   
    12     6     8 ar  
    13     6    22 1   
    14     7     8 ar  
    15     7     9 1   
    16     7    16 ar  
    17     8    23 1   
    18     9    17 2   
    19    10    14 ar  
    20    10    29 1   
    21    11    16 ar  
    22    11    24 1   
    23    12    13 ar  
    24    12    15 ar  
    25    12    25 1   
    26    13    14 ar  
    27    13    26 1   
    28    14    27 1   
    29    16    28 1   
    30    18    29 1   
    31    19    29 1   
@<TRIPOS>SUBSTRUCTURE
     1 L43         1 TEMP              0 ****  ****    0 ROOT
