@<TRIPOS>MOLECULE
L44
  120   119     1     0     0
SMALL
abcg2


@<TRIPOS>ATOM
      1 C1          -4.7790     6.2680    -1.3180 c3         1 L44       0.143600
      2 O1          -5.0700     5.1260    -2.0810 oh         1 L44      -0.635000
      3 C2          -4.5040     5.8970     0.1290 c3         1 L44       0.176300
      4 O2          -3.5000     4.8810     0.2290 os         1 L44      -0.428100
      5 C3          -5.7000     5.4210     0.9230 c3         1 L44       0.168600
      6 O3          -6.2050     4.2090     0.3710 os         1 L44      -0.416100
      7 C4          -7.3190     3.7150     0.9010 c          1 L44       0.591100
      8 O4          -7.8970     4.2340     1.8230 o          1 L44      -0.497000
      9 C5          -7.7510     2.4520     0.2070 c3         1 L44      -0.136400
     10 C6          -9.0650     1.8960     0.7300 c3         1 L44      -0.069400
     11 C7          -9.4990     0.6360    -0.0090 c3         1 L44      -0.075400
     12 C8         -10.8190     0.0840     0.5130 c3         1 L44      -0.075400
     13 C9         -11.2860    -1.1740    -0.2110 c3         1 L44      -0.073400
     14 C10        -12.6040    -1.7120     0.3320 c3         1 L44      -0.075400
     15 C11        -13.0910    -2.9710    -0.3760 c3         1 L44      -0.073400
     16 C12        -14.4040    -3.4990     0.1880 c3         1 L44      -0.074400
     17 C13        -14.8990    -4.7660    -0.4990 c3         1 L44      -0.073400
     18 C14        -16.2060    -5.2900     0.0850 c3         1 L44      -0.075400
     19 C15        -16.7090    -6.5600    -0.5900 c3         1 L44      -0.075400
     20 C16        -18.0070    -7.0850     0.0110 c3         1 L44      -0.075400
     21 C17        -18.5060    -8.3580    -0.6600 c3         1 L44      -0.088100
     22 C18         -2.2160     5.2280     0.1650 c          1 L44       0.595100
     23 O18         -1.8390     6.3590    -0.0130 o          1 L44      -0.497000
     24 C19         -1.3190     4.0380     0.3680 c3         1 L44      -0.137400
     25 C20          0.1410     4.3090     0.0420 c3         1 L44      -0.068400
     26 C21          1.0190     3.0960     0.3190 c3         1 L44      -0.075400
     27 C22          2.4840     3.3380    -0.0190 c3         1 L44      -0.074400
     28 C23          3.3760     2.1400     0.2830 c3         1 L44      -0.074400
     29 C24          4.8400     2.3780    -0.0650 c3         1 L44      -0.074400
     30 C25          5.7360     1.1850     0.2430 c3         1 L44      -0.074400
     31 C26          7.1980     1.4240    -0.1090 c3         1 L44      -0.074400
     32 C27          8.0950     0.2320     0.2030 c3         1 L44      -0.074400
     33 C28          9.5580     0.4690    -0.1500 c3         1 L44      -0.074400
     34 C29         10.4540    -0.7220     0.1620 c3         1 L44      -0.074400
     35 C30         11.9170    -0.4860    -0.1900 c3         1 L44      -0.074400
     36 C31         12.8120    -1.6780     0.1250 c3         1 L44      -0.074400
     37 C32         14.2760    -1.4440    -0.2250 c3         1 L44      -0.074400
     38 C33         15.1680    -2.6370     0.0920 c3         1 L44      -0.074400
     39 C34         16.6330    -2.4060    -0.2550 c3         1 L44      -0.074400
     40 C35         17.5230    -3.6000     0.0670 c3         1 L44      -0.074400
     41 C36         18.9890    -3.3720    -0.2780 c3         1 L44      -0.074400
     42 C37         19.8760    -4.5670     0.0440 c3         1 L44      -0.075400
     43 C38         21.3430    -4.3440    -0.3020 c3         1 L44      -0.075400
     44 C39         22.2180    -5.5470     0.0240 c3         1 L44      -0.088100
     45 H1          -3.9050     6.8000    -1.7090 h1         1 L44       0.031700
     46 H2          -5.6060     6.9910    -1.3120 h1         1 L44       0.031700
     47 H3          -5.0790     5.3900    -3.0060 ho         1 L44       0.440000
     48 H4          -4.1720     6.8120     0.6300 h1         1 L44       0.069700
     49 H5          -5.4090     5.2700     1.9660 h1         1 L44       0.056700
     50 H6          -6.4610     6.2050     0.9010 h1         1 L44       0.056700
     51 H9          -7.8170     2.6580    -0.8660 hc         1 L44       0.074200
     52 H10         -6.9500     1.7120     0.3120 hc         1 L44       0.074200
     53 H11         -8.9740     1.6760     1.7970 hc         1 L44       0.053200
     54 H12         -9.8480     2.6540     0.6390 hc         1 L44       0.053200
     55 H13         -9.5920     0.8530    -1.0790 hc         1 L44       0.037700
     56 H14         -8.7210    -0.1300     0.0790 hc         1 L44       0.037700
     57 H15        -10.7210    -0.1320     1.5830 hc         1 L44       0.039700
     58 H16        -11.5910     0.8560     0.4310 hc         1 L44       0.039700
     59 H17        -11.3920    -0.9600    -1.2800 hc         1 L44       0.037200
     60 H18        -10.5160    -1.9480    -0.1320 hc         1 L44       0.037200
     61 H19        -12.4940    -1.9210     1.4020 hc         1 L44       0.037700
     62 H20        -13.3720    -0.9340     0.2550 hc         1 L44       0.037700
     63 H21        -13.2110    -2.7640    -1.4450 hc         1 L44       0.037200
     64 H22        -12.3240    -3.7490    -0.3030 hc         1 L44       0.037200
     65 H23        -14.2820    -3.6940     1.2600 hc         1 L44       0.037200
     66 H24        -15.1710    -2.7210     0.1100 hc         1 L44       0.037200
     67 H25        -15.0310    -4.5720    -1.5690 hc         1 L44       0.036700
     68 H26        -14.1310    -5.5440    -0.4250 hc         1 L44       0.036700
     69 H27        -16.0720    -5.4790     1.1560 hc         1 L44       0.036700
     70 H28        -16.9730    -4.5110     0.0110 hc         1 L44       0.036700
     71 H29        -16.8540    -6.3720    -1.6590 hc         1 L44       0.036700
     72 H30        -15.9380    -7.3370    -0.5230 hc         1 L44       0.036700
     73 H31        -17.8590    -7.2720     1.0800 hc         1 L44       0.036200
     74 H32        -18.7760    -6.3090    -0.0550 hc         1 L44       0.036200
     75 H33        -17.7630    -9.1550    -0.5930 hc         1 L44       0.031367
     76 H34        -19.4230    -8.7210    -0.1960 hc         1 L44       0.031367
     77 H35        -18.7150    -8.1920    -1.7190 hc         1 L44       0.031367
     78 H36         -1.4220     3.7290     1.4140 hc         1 L44       0.073700
     79 H37         -1.7000     3.2000    -0.2220 hc         1 L44       0.073700
     80 H38          0.2380     4.5960    -1.0090 hc         1 L44       0.053700
     81 H39          0.5020     5.1590     0.6270 hc         1 L44       0.053700
     82 H40          0.9300     2.8180     1.3750 hc         1 L44       0.038200
     83 H41          0.6510     2.2360    -0.2520 hc         1 L44       0.038200
     84 H42          2.5740     3.5990    -1.0790 hc         1 L44       0.039700
     85 H43          2.8470     4.2090     0.5380 hc         1 L44       0.039700
     86 H44          3.2920     1.8850     1.3450 hc         1 L44       0.037700
     87 H45          3.0090     1.2660    -0.2670 hc         1 L44       0.037700
     88 H46          4.9240     2.6300    -1.1290 hc         1 L44       0.037700
     89 H47          5.2050     3.2560     0.4810 hc         1 L44       0.037700
     90 H48          5.6540     0.9360     1.3070 hc         1 L44       0.036700
     91 H49          5.3700     0.3060    -0.3000 hc         1 L44       0.036700
     92 H50          7.2800     1.6710    -1.1730 hc         1 L44       0.037700
     93 H51          7.5630     2.3040     0.4330 hc         1 L44       0.037700
     94 H52          8.0140    -0.0140     1.2670 hc         1 L44       0.036700
     95 H53          7.7290    -0.6480    -0.3380 hc         1 L44       0.036700
     96 H54          9.6390     0.7150    -1.2150 hc         1 L44       0.037200
     97 H55          9.9230     1.3500     0.3910 hc         1 L44       0.037200
     98 H56         10.3720    -0.9680     1.2270 hc         1 L44       0.036700
     99 H57         10.0880    -1.6030    -0.3790 hc         1 L44       0.036700
    100 H58         11.9990    -0.2420    -1.2550 hc         1 L44       0.036700
    101 H59         12.2830     0.3950     0.3490 hc         1 L44       0.036700
    102 H60         12.7280    -1.9220     1.1900 hc         1 L44       0.036700
    103 H61         12.4460    -2.5590    -0.4150 hc         1 L44       0.036700
    104 H62         14.3600    -1.2010    -1.2900 hc         1 L44       0.036700
    105 H63         14.6420    -0.5640     0.3150 hc         1 L44       0.036700
    106 H64         15.0810    -2.8810     1.1570 hc         1 L44       0.036700
    107 H65         14.8020    -3.5170    -0.4490 hc         1 L44       0.036700
    108 H66         16.7200    -2.1650    -1.3200 hc         1 L44       0.036700
    109 H67         17.0000    -1.5250     0.2840 hc         1 L44       0.036700
    110 H68         17.4340    -3.8410     1.1320 hc         1 L44       0.036700
    111 H69         17.1560    -4.4810    -0.4730 hc         1 L44       0.036700
    112 H70         19.0780    -3.1300    -1.3430 hc         1 L44       0.036700
    113 H71         19.3560    -2.4910     0.2620 hc         1 L44       0.036700
    114 H72         19.7880    -4.8090     1.1090 hc         1 L44       0.036700
    115 H73         19.5080    -5.4480    -0.4950 hc         1 L44       0.036700
    116 H74         21.4310    -4.1040    -1.3660 hc         1 L44       0.036700
    117 H75         21.7120    -3.4650     0.2370 hc         1 L44       0.036700
    118 H76         21.8830    -6.4340    -0.5170 hc         1 L44       0.031367
    119 H77         23.2600    -5.3710    -0.2450 hc         1 L44       0.031367
    120 H78         22.1850    -5.7810     1.0890 hc         1 L44       0.031367
@<TRIPOS>BOND
     1     1     2 1   
     2     1     3 1   
     3     1    45 1   
     4     1    46 1   
     5     2    47 1   
     6     3     4 1   
     7     3     5 1   
     8     3    48 1   
     9     4    22 1   
    10     5     6 1   
    11     5    49 1   
    12     5    50 1   
    13     6     7 1   
    14     7     8 2   
    15     7     9 1   
    16     9    10 1   
    17     9    51 1   
    18     9    52 1   
    19    10    11 1   
    20    10    53 1   
    21    10    54 1   
    22    11    12 1   
    23    11    55 1   
    24    11    56 1   
    25    12    13 1   
    26    12    57 1   
    27    12    58 1   
    28    13    14 1   
    29    13    59 1   
    30    13    60 1   
    31    14    15 1   
    32    14    61 1   
    33    14    62 1   
    34    15    16 1   
    35    15    63 1   
    36    15    64 1   
    37    16    17 1   
    38    16    65 1   
    39    16    66 1   
    40    17    18 1   
    41    17    67 1   
    42    17    68 1   
    43    18    19 1   
    44    18    69 1   
    45    18    70 1   
    46    19    20 1   
    47    19    71 1   
    48    19    72 1   
    49    20    21 1   
    50    20    73 1   
    51    20    74 1   
    52    21    75 1   
    53    21    76 1   
    54    21    77 1   
    55    22    23 2   
    56    22    24 1   
    57    24    25 1   
    58    24    78 1   
    59    24    79 1   
    60    25    26 1   
    61    25    80 1   
    62    25    81 1   
    63    26    27 1   
    64    26    82 1   
    65    26    83 1   
    66    27    28 1   
    67    27    84 1   
    68    27    85 1   
    69    28    29 1   
    70    28    86 1   
    71    28    87 1   
    72    29    30 1   
    73    29    88 1   
    74    29    89 1   
    75    30    31 1   
    76    30    90 1   
    77    30    91 1   
    78    31    32 1   
    79    31    92 1   
    80    31    93 1   
    81    32    33 1   
    82    32    94 1   
    83    32    95 1   
    84    33    34 1   
    85    33    96 1   
    86    33    97 1   
    87    34    35 1   
    88    34    98 1   
    89    34    99 1   
    90    35    36 1   
    91    35   100 1   
    92    35   101 1   
    93    36    37 1   
    94    36   102 1   
    95    36   103 1   
    96    37    38 1   
    97    37   104 1   
    98    37   105 1   
    99    38    39 1   
   100    38   106 1   
   101    38   107 1   
   102    39    40 1   
   103    39   108 1   
   104    39   109 1   
   105    40    41 1   
   106    40   110 1   
   107    40   111 1   
   108    41    42 1   
   109    41   112 1   
   110    41   113 1   
   111    42    43 1   
   112    42   114 1   
   113    42   115 1   
   114    43    44 1   
   115    43   116 1   
   116    43   117 1   
   117    44   118 1   
   118    44   119 1   
   119    44   120 1   
@<TRIPOS>SUBSTRUCTURE
     1 L44         1 TEMP              0 ****  ****    0 ROOT
