@<TRIPOS>MOLECULE
L44
  120   119     1     0     0
SMALL
No Charge or Current Charge


@<TRIPOS>ATOM
      1 C1          -5.0460     5.2930    -1.2550 c3         1 L44       0.143600
      2 O1          -4.7540     3.8820    -1.2200 oh         1 L44      -0.635000
      3 C2          -4.8040     6.0070     0.1170 c3         1 L44       0.176300
      4 O2          -3.5750     5.5430     0.7330 os         1 L44      -0.428100
      5 C3          -5.9580     5.8480     1.1450 c3         1 L44       0.168600
      6 O3          -6.2560     4.4550     1.3710 os         1 L44      -0.416100
      7 C4          -7.2240     4.1510     2.2910 c          1 L44       0.591100
      8 O4          -7.8420     4.9800     2.9460 o          1 L44      -0.497000
      9 C5          -7.4900     2.6460     2.3670 c3         1 L44      -0.136400
     10 C6          -8.6860     2.2500     1.4680 c3         1 L44      -0.069400
     11 C7          -9.0450     0.7500     1.5580 c3         1 L44      -0.075400
     12 C8         -10.2580     0.3710     0.6820 c3         1 L44      -0.075400
     13 C9         -10.6510    -1.1180     0.7990 c3         1 L44      -0.073400
     14 C10        -11.8860    -1.4820    -0.0530 c3         1 L44      -0.075400
     15 C11        -12.3070    -2.9610     0.0890 c3         1 L44      -0.073400
     16 C12        -13.5630    -3.3110    -0.7390 c3         1 L44      -0.074400
     17 C13        -14.0040    -4.7820    -0.5770 c3         1 L44      -0.073400
     18 C14        -15.2740    -5.1230    -1.3860 c3         1 L44      -0.075400
     19 C15        -15.7290    -6.5880    -1.2090 c3         1 L44      -0.075400
     20 C16        -17.0090    -6.9230    -2.0060 c3         1 L44      -0.075400
     21 C17        -17.4700    -8.3820    -1.8210 c3         1 L44      -0.088100
     22 C18         -2.3780     5.9030     0.1700 c          1 L44       0.595100
     23 O18         -2.2590     6.7230    -0.7310 o          1 L44      -0.497000
     24 C19         -1.1900     5.3750     0.9800 c3         1 L44      -0.137400
     25 C20         -0.3490     4.3610     0.1690 c3         1 L44      -0.068400
     26 C21          0.9080     3.8830     0.9310 c3         1 L44      -0.075400
     27 C22          1.8210     2.9640     0.0900 c3         1 L44      -0.074400
     28 C23          3.0990     2.5350     0.8440 c3         1 L44      -0.074400
     29 C24          4.0710     1.7060    -0.0230 c3         1 L44      -0.074400
     30 C25          5.3660     1.3220     0.7270 c3         1 L44      -0.074400
     31 C26          6.3830     0.5680    -0.1580 c3         1 L44      -0.074400
     32 C27          7.6900     0.2230     0.5900 c3         1 L44      -0.074400
     33 C28          8.7420    -0.4650    -0.3080 c3         1 L44      -0.074400
     34 C29         10.0590    -0.7730     0.4370 c3         1 L44      -0.074400
     35 C30         11.1380    -1.4050    -0.4700 c3         1 L44      -0.074400
     36 C31         12.4650    -1.6780     0.2740 c3         1 L44      -0.074400
     37 C32         13.5620    -2.2710    -0.6380 c3         1 L44      -0.074400
     38 C33         14.8950    -2.5140     0.1040 c3         1 L44      -0.074400
     39 C34         16.0040    -3.0780    -0.8100 c3         1 L44      -0.074400
     40 C35         17.3420    -3.2980    -0.0700 c3         1 L44      -0.074400
     41 C36         18.4600    -3.8420    -0.9870 c3         1 L44      -0.074400
     42 C37         19.8000    -4.0500    -0.2490 c3         1 L44      -0.075400
     43 C38         20.9200    -4.5870    -1.1680 c3         1 L44      -0.075400
     44 C39         22.2580    -4.7930    -0.4320 c3         1 L44      -0.088100
     45 H1          -4.4180     5.7780    -2.0150 h1         1 L44       0.031700
     46 H2          -6.0890     5.4570    -1.5570 h1         1 L44       0.031700
     47 H3          -4.9650     3.5200    -2.1080 ho         1 L44       0.440000
     48 H4          -4.7330     7.0850    -0.0830 h1         1 L44       0.069700
     49 H5          -5.6640     6.3390     2.0820 h1         1 L44       0.056700
     50 H6          -6.8460     6.3680     0.7600 h1         1 L44       0.056700
     51 H9          -6.6070     2.1030     2.0110 hc         1 L44       0.074200
     52 H10         -7.7180     2.3770     3.4050 hc         1 L44       0.074200
     53 H11         -9.5620     2.8440     1.7550 hc         1 L44       0.053200
     54 H12         -8.4550     2.5060     0.4260 hc         1 L44       0.053200
     55 H13         -8.1770     0.1500     1.2550 hc         1 L44       0.037700
     56 H14         -9.2620     0.4950     2.6030 hc         1 L44       0.037700
     57 H15        -11.1170     0.9910     0.9710 hc         1 L44       0.039700
     58 H16        -10.0340     0.6040    -0.3670 hc         1 L44       0.039700
     59 H17         -9.8020    -1.7420     0.4920 hc         1 L44       0.037200
     60 H18        -10.8580    -1.3530     1.8510 hc         1 L44       0.037200
     61 H19        -12.7260    -0.8400     0.2400 hc         1 L44       0.037700
     62 H20        -11.6730    -1.2670    -1.1080 hc         1 L44       0.037700
     63 H21        -11.4760    -3.6050    -0.2230 hc         1 L44       0.037200
     64 H22        -12.5030    -3.1780     1.1460 hc         1 L44       0.037200
     65 H23        -14.3880    -2.6530    -0.4370 hc         1 L44       0.037200
     66 H24        -13.3640    -3.1080    -1.7990 hc         1 L44       0.037200
     67 H25        -13.1860    -5.4410    -0.8930 hc         1 L44       0.036700
     68 H26        -14.1880    -4.9860     0.4850 hc         1 L44       0.036700
     69 H27        -16.0880    -4.4540    -1.0760 hc         1 L44       0.036700
     70 H28        -15.0880    -4.9280    -2.4490 hc         1 L44       0.036700
     71 H29        -14.9200    -7.2580    -1.5280 hc         1 L44       0.036700
     72 H30        -15.9070    -6.7840    -0.1440 hc         1 L44       0.036700
     73 H31        -17.8180    -6.2520    -1.6940 hc         1 L44       0.036200
     74 H32        -16.8320    -6.7380    -3.0730 hc         1 L44       0.036200
     75 H33        -17.6880    -8.5890    -0.7660 hc         1 L44       0.031367
     76 H34        -18.3800    -8.5720    -2.4030 hc         1 L44       0.031367
     77 H35        -16.6940    -9.0800    -2.1590 hc         1 L44       0.031367
     78 H36         -0.5530     6.2250     1.2500 hc         1 L44       0.073700
     79 H37         -1.5540     4.8770     1.8860 hc         1 L44       0.073700
     80 H38         -0.9710     3.4950    -0.0910 hc         1 L44       0.053700
     81 H39         -0.0390     4.8270    -0.7750 hc         1 L44       0.053700
     82 H40          1.4860     4.7600     1.2510 hc         1 L44       0.038200
     83 H41          0.6000     3.3540     1.8420 hc         1 L44       0.038200
     84 H42          1.2600     2.0710    -0.2130 hc         1 L44       0.039700
     85 H43          2.1070     3.4910    -0.8300 hc         1 L44       0.039700
     86 H44          3.6200     3.4320     1.2030 hc         1 L44       0.037700
     87 H45          2.8170     1.9530     1.7310 hc         1 L44       0.037700
     88 H46          3.5660     0.7940    -0.3670 hc         1 L44       0.037700
     89 H47          4.3340     2.2840    -0.9180 hc         1 L44       0.037700
     90 H48          5.8380     2.2340     1.1140 hc         1 L44       0.036700
     91 H49          5.1100     0.7010     1.5950 hc         1 L44       0.036700
     92 H50          5.9250    -0.3550    -0.5330 hc         1 L44       0.037700
     93 H51          6.6230     1.1860    -1.0330 hc         1 L44       0.037700
     94 H52          8.1210     1.1450     1.0020 hc         1 L44       0.036700
     95 H53          7.4580    -0.4300     1.4410 hc         1 L44       0.036700
     96 H54          8.3240    -1.3970    -0.7080 hc         1 L44       0.037200
     97 H55          8.9590     0.1840    -1.1660 hc         1 L44       0.037200
     98 H56         10.4540     0.1560     0.8680 hc         1 L44       0.036700
     99 H57          9.8500    -1.4500     1.2760 hc         1 L44       0.036700
    100 H58         10.7560    -2.3460    -0.8860 hc         1 L44       0.036700
    101 H59         11.3330    -0.7350    -1.3170 hc         1 L44       0.036700
    102 H60         12.8300    -0.7400     0.7100 hc         1 L44       0.036700
    103 H61         12.2760    -2.3670     1.1070 hc         1 L44       0.036700
    104 H62         13.2060    -3.2190    -1.0630 hc         1 L44       0.036700
    105 H63         13.7380    -1.5880    -1.4790 hc         1 L44       0.036700
    106 H64         15.2380    -1.5690     0.5440 hc         1 L44       0.036700
    107 H65         14.7230    -3.2100     0.9360 hc         1 L44       0.036700
    108 H66         15.6680    -4.0300    -1.2410 hc         1 L44       0.036700
    109 H67         16.1660    -2.3870    -1.6470 hc         1 L44       0.036700
    110 H68         17.6700    -2.3480     0.3710 hc         1 L44       0.036700
    111 H69         17.1840    -3.9980     0.7600 hc         1 L44       0.036700
    112 H70         18.1360    -4.7960    -1.4230 hc         1 L44       0.036700
    113 H71         18.6130    -3.1440    -1.8210 hc         1 L44       0.036700
    114 H72         20.1220    -3.0970     0.1900 hc         1 L44       0.036700
    115 H73         19.6490    -4.7510     0.5820 hc         1 L44       0.036700
    116 H74         20.6030    -5.5410    -1.6070 hc         1 L44       0.036700
    117 H75         21.0750    -3.8880    -1.9990 hc         1 L44       0.036700
    118 H76         22.1440    -5.5160     0.3860 hc         1 L44       0.031367
    119 H77         23.0190    -5.1750    -1.1230 hc         1 L44       0.031367
    120 H78         22.6200    -3.8470    -0.0110 hc         1 L44       0.031367
@<TRIPOS>BOND
     1     1     2 1   
     2     1     3 1   
     3     1    45 1   
     4     1    46 1   
     5     2    47 1   
     6     3     4 1   
     7     3     5 1   
     8     3    48 1   
     9     4    22 1   
    10     5     6 1   
    11     5    49 1   
    12     5    50 1   
    13     6     7 1   
    14     7     8 2   
    15     7     9 1   
    16     9    10 1   
    17     9    51 1   
    18     9    52 1   
    19    10    11 1   
    20    10    53 1   
    21    10    54 1   
    22    11    12 1   
    23    11    55 1   
    24    11    56 1   
    25    12    13 1   
    26    12    57 1   
    27    12    58 1   
    28    13    14 1   
    29    13    59 1   
    30    13    60 1   
    31    14    15 1   
    32    14    61 1   
    33    14    62 1   
    34    15    16 1   
    35    15    63 1   
    36    15    64 1   
    37    16    17 1   
    38    16    65 1   
    39    16    66 1   
    40    17    18 1   
    41    17    67 1   
    42    17    68 1   
    43    18    19 1   
    44    18    69 1   
    45    18    70 1   
    46    19    20 1   
    47    19    71 1   
    48    19    72 1   
    49    20    21 1   
    50    20    73 1   
    51    20    74 1   
    52    21    75 1   
    53    21    76 1   
    54    21    77 1   
    55    22    23 2   
    56    22    24 1   
    57    24    25 1   
    58    24    78 1   
    59    24    79 1   
    60    25    26 1   
    61    25    80 1   
    62    25    81 1   
    63    26    27 1   
    64    26    82 1   
    65    26    83 1   
    66    27    28 1   
    67    27    84 1   
    68    27    85 1   
    69    28    29 1   
    70    28    86 1   
    71    28    87 1   
    72    29    30 1   
    73    29    88 1   
    74    29    89 1   
    75    30    31 1   
    76    30    90 1   
    77    30    91 1   
    78    31    32 1   
    79    31    92 1   
    80    31    93 1   
    81    32    33 1   
    82    32    94 1   
    83    32    95 1   
    84    33    34 1   
    85    33    96 1   
    86    33    97 1   
    87    34    35 1   
    88    34    98 1   
    89    34    99 1   
    90    35    36 1   
    91    35   100 1   
    92    35   101 1   
    93    36    37 1   
    94    36   102 1   
    95    36   103 1   
    96    37    38 1   
    97    37   104 1   
    98    37   105 1   
    99    38    39 1   
   100    38   106 1   
   101    38   107 1   
   102    39    40 1   
   103    39   108 1   
   104    39   109 1   
   105    40    41 1   
   106    40   110 1   
   107    40   111 1   
   108    41    42 1   
   109    41   112 1   
   110    41   113 1   
   111    42    43 1   
   112    42   114 1   
   113    42   115 1   
   114    43    44 1   
   115    43   116 1   
   116    43   117 1   
   117    44   118 1   
   118    44   119 1   
   119    44   120 1   
@<TRIPOS>SUBSTRUCTURE
     1 L44         1 TEMP              0 ****  ****    0 ROOT
