@<TRIPOS>MOLECULE
L45
   57    59     1     0     0
SMALL
abcg2


@<TRIPOS>ATOM
      1 C11         15.6210    -9.6560    -6.9370 cc         1 L45      -0.034300
      2 C12         15.0500    -8.4100    -7.1560 cd         1 L45      -0.266600
      3 C16         16.9260    -5.5370    -5.6210 ca         1 L45      -0.063000
      4 C19         18.0700    -4.2480    -3.9090 ca         1 L45      -0.195000
      5 C20         18.1380    -3.1570    -4.7620 ca         1 L45      -0.003000
      6 C24         19.5320    -3.1120    -8.8060 c3         1 L45       0.213300
      7 C25         19.5170    -2.5920   -10.2350 c3         1 L45      -0.094100
      8 C02         13.5900    -9.9230    -7.9730 cd         1 L45      -0.050300
      9 C03         12.3440   -10.4030    -8.6250 c3         1 L45      -0.038800
     10 C04         14.6930   -10.6220    -7.4530 cc         1 L45      -0.270600
     11 C05         14.8410   -12.0700    -7.4960 c          1 L45       0.612700
     12 C07         16.2210   -12.6480    -7.2810 c3         1 L45      -0.170400
     13 C08         16.7620   -12.5390    -5.8430 c3         1 L45      -0.061400
     14 C09         16.7510   -11.1280    -5.2340 c3         1 L45      -0.073400
     15 C10         16.9190    -9.9970    -6.2640 c3         1 L45      -0.013100
     16 C13         15.4250    -7.0100    -6.9330 c          1 L45       0.643700
     17 C17         17.4770    -5.4320    -4.3300 ca         1 L45       0.131100
     18 C21         17.6080    -3.2680    -6.0450 ca         1 L45      -0.319500
     19 C26         20.4500    -1.7090    -6.9370 c3         1 L45       0.213300
     20 C27         21.5690    -1.0300    -7.7130 c3         1 L45      -0.094100
     21 C30         17.0070    -4.4460    -6.4790 ca         1 L45      -0.006000
     22 N01         13.8410    -8.6170    -7.8040 na         1 L45      -0.073000
     23 N15         16.3650    -6.7700    -5.9700 ns         1 L45      -0.135000
     24 N23         19.3090    -2.0390    -7.8100 n3         1 L45      -0.759500
     25 O06         13.8880   -12.8100    -7.7420 o          1 L45      -0.555100
     26 O14         14.8860    -6.1090    -7.5810 o          1 L45      -0.601100
     27 O18         17.3860    -6.5360    -3.5450 oh         1 L45      -0.550100
     28 O28         17.7460    -0.6920    -6.4250 o          1 L45      -0.540000
     29 O29         16.8770    -2.1230    -8.2710 o          1 L45      -0.540000
     30 S22         17.8020    -1.9240    -7.1790 sy         1 L45       1.195600
     31 H1          18.4730    -4.1850    -2.9050 ha         1 L45       0.120000
     32 H2          18.5870    -2.2340    -4.4260 ha         1 L45       0.134000
     33 H3          18.7790    -3.8920    -8.6830 h1         1 L45       0.045200
     34 H4          20.4930    -3.5700    -8.5710 h1         1 L45       0.045200
     35 H5          19.7120    -3.4130   -10.9290 hc         1 L45       0.046533
     36 H6          18.5460    -2.1610   -10.4750 hc         1 L45       0.046533
     37 H7          20.2820    -1.8280   -10.3800 hc         1 L45       0.046533
     38 H8          12.5730   -11.1170    -9.4160 hc         1 L45       0.062700
     39 H9          11.7040   -10.9180    -7.9060 hc         1 L45       0.062700
     40 H10         11.7900    -9.5650    -9.0490 hc         1 L45       0.062700
     41 H11         16.1860   -13.6970    -7.5740 hc         1 L45       0.062700
     42 H12         16.9090   -12.1350    -7.9590 hc         1 L45       0.062700
     43 H13         16.2000   -13.2170    -5.1980 hc         1 L45       0.044700
     44 H14         17.7890   -12.9120    -5.8680 hc         1 L45       0.044700
     45 H15         17.5530   -11.0610    -4.4970 hc         1 L45       0.046200
     46 H16         15.8170   -10.9600    -4.6920 hc         1 L45       0.046200
     47 H17         17.6590   -10.2940    -7.0140 hc         1 L45       0.049200
     48 H18         17.3440    -9.1260    -5.7730 hc         1 L45       0.049200
     49 H19         20.8150    -2.6220    -6.4550 h1         1 L45       0.045200
     50 H20         20.0910    -1.0410    -6.1580 h1         1 L45       0.045200
     51 H21         22.3870    -0.7910    -7.0310 hc         1 L45       0.046533
     52 H22         21.9660    -1.6740    -8.4990 hc         1 L45       0.046533
     53 H23         21.2130    -0.1050    -8.1690 hc         1 L45       0.046533
     54 H24         16.5940    -4.5130    -7.4710 ha         1 L45       0.168000
     55 H25         13.2430    -7.8610    -8.1040 hn         1 L45       0.372000
     56 H26         16.5620    -7.5200    -5.3270 hn         1 L45       0.174000
     57 H27         17.8120    -6.3860    -2.6890 ho         1 L45       0.478000
@<TRIPOS>BOND
     1     1     2 2   
     2     1    10 1   
     3     1    15 1   
     4     2    16 1   
     5     2    22 1   
     6     3    17 ar  
     7     3    21 ar  
     8     3    23 1   
     9     4     5 ar  
    10     4    17 ar  
    11     4    31 1   
    12     5    18 ar  
    13     5    32 1   
    14     6     7 1   
    15     6    24 1   
    16     6    33 1   
    17     6    34 1   
    18     7    35 1   
    19     7    36 1   
    20     7    37 1   
    21     8     9 1   
    22     8    10 2   
    23     8    22 1   
    24     9    38 1   
    25     9    39 1   
    26     9    40 1   
    27    10    11 1   
    28    11    12 1   
    29    11    25 2   
    30    12    13 1   
    31    12    41 1   
    32    12    42 1   
    33    13    14 1   
    34    13    43 1   
    35    13    44 1   
    36    14    15 1   
    37    14    45 1   
    38    14    46 1   
    39    15    47 1   
    40    15    48 1   
    41    16    23 1   
    42    16    26 2   
    43    17    27 1   
    44    18    21 ar  
    45    18    30 1   
    46    19    20 1   
    47    19    24 1   
    48    19    49 1   
    49    19    50 1   
    50    20    51 1   
    51    20    52 1   
    52    20    53 1   
    53    21    54 1   
    54    22    55 1   
    55    23    56 1   
    56    24    30 1   
    57    27    57 1   
    58    28    30 2   
    59    29    30 2   
@<TRIPOS>SUBSTRUCTURE
     1 L45         1 TEMP              0 ****  ****    0 ROOT
