@<TRIPOS>MOLECULE
L45
   57    59     1     0     0
SMALL
No Charge or Current Charge


@<TRIPOS>ATOM
      1 C11         15.5380    -9.6140    -6.8560 cc         1 L45      -0.034300
      2 C12         15.3850    -8.4700    -7.6260 cd         1 L45      -0.266600
      3 C16         17.6150    -5.8700    -5.9020 ca         1 L45      -0.063000
      4 C19         19.3870    -5.0880    -4.4120 ca         1 L45      -0.195000
      5 C20         19.1430    -3.7610    -4.7990 ca         1 L45      -0.003000
      6 C24         18.5040    -2.4100    -8.7500 c3         1 L45       0.213300
      7 C25         18.4470    -1.6240   -10.0740 c3         1 L45      -0.094100
      8 C02         14.2470   -10.1730    -8.6610 cd         1 L45      -0.050300
      9 C03         13.4170   -10.8580    -9.7190 c3         1 L45      -0.038800
     10 C04         14.8820   -10.6770    -7.5530 cc         1 L45      -0.270600
     11 C05         14.8590   -12.1190    -7.1640 c          1 L45       0.612700
     12 C07         15.9460   -12.6250    -6.2110 c3         1 L45      -0.170400
     13 C08         15.6940   -12.2320    -4.7430 c3         1 L45      -0.061400
     14 C09         15.3420   -10.7420    -4.5480 c3         1 L45      -0.073400
     15 C10         16.1290    -9.7660    -5.4580 c3         1 L45      -0.013100
     16 C13         15.9360    -7.0940    -7.4230 c          1 L45       0.643700
     17 C17         18.6300    -6.1350    -4.9590 ca         1 L45       0.131100
     18 C21         18.1320    -3.4800    -5.7380 ca         1 L45      -0.319500
     19 C26         20.2990    -1.6020    -7.2150 c3         1 L45       0.213300
     20 C27         21.2720    -1.1310    -8.3120 c3         1 L45      -0.094100
     21 C30         17.3640    -4.5310    -6.2820 ca         1 L45      -0.006000
     22 N01         14.5610    -8.8190    -8.7050 na         1 L45      -0.073000
     23 N15         16.8800    -6.9770    -6.4170 ns         1 L45      -0.135000
     24 N23         18.8570    -1.5680    -7.5770 n3         1 L45      -0.759500
     25 O06         14.0200   -12.9040    -7.5920 o          1 L45      -0.555100
     26 O14         15.5940    -6.1650    -8.1450 o          1 L45      -0.601100
     27 O18         18.8850    -7.4190    -4.5670 oh         1 L45      -0.550100
     28 O28         18.2970    -0.8590    -5.1940 o          1 L45      -0.540000
     29 O29         16.4480    -1.6530    -6.7540 o          1 L45      -0.540000
     30 S22         17.8150    -1.7750    -6.2350 sy         1 L45       1.195600
     31 H1          20.1690    -5.2940    -3.6850 ha         1 L45       0.120000
     32 H2          19.7390    -2.9590    -4.3650 ha         1 L45       0.134000
     33 H3          17.5160    -2.8710    -8.6300 h1         1 L45       0.045200
     34 H4          19.2140    -3.2430    -8.8540 h1         1 L45       0.045200
     35 H5          18.1360    -2.2860   -10.8910 hc         1 L45       0.046533
     36 H6          17.7170    -0.8090   -10.0000 hc         1 L45       0.046533
     37 H7          19.4170    -1.1930   -10.3400 hc         1 L45       0.046533
     38 H8          13.9630   -11.6960   -10.1670 hc         1 L45       0.062700
     39 H9          12.4850   -11.2500    -9.2940 hc         1 L45       0.062700
     40 H10         13.1460   -10.1700   -10.5290 hc         1 L45       0.062700
     41 H11         16.0360   -13.7150    -6.2870 hc         1 L45       0.062700
     42 H12         16.8930   -12.1570    -6.5000 hc         1 L45       0.062700
     43 H13         14.8830   -12.8460    -4.3310 hc         1 L45       0.044700
     44 H14         16.5930   -12.4680    -4.1600 hc         1 L45       0.044700
     45 H15         15.5310   -10.4830    -3.4990 hc         1 L45       0.046200
     46 H16         14.2670   -10.5920    -4.7080 hc         1 L45       0.046200
     47 H17         17.1890   -10.0420    -5.5020 hc         1 L45       0.049200
     48 H18         16.0820    -8.8060    -4.9350 hc         1 L45       0.049200
     49 H19         20.5890    -2.6180    -6.9140 h1         1 L45       0.045200
     50 H20         20.4810    -0.9520    -6.3500 h1         1 L45       0.045200
     51 H21         22.2850    -1.0520    -7.9030 hc         1 L45       0.046533
     52 H22         21.3050    -1.8430    -9.1440 hc         1 L45       0.046533
     53 H23         20.9790    -0.1460    -8.6920 hc         1 L45       0.046533
     54 H24         16.5730    -4.2950    -6.9890 ha         1 L45       0.168000
     55 H25         14.2540    -8.1750    -9.4300 hn         1 L45       0.372000
     56 H26         17.1070    -7.8510    -5.9640 hn         1 L45       0.174000
     57 H27         19.6200    -7.4050    -3.9170 ho         1 L45       0.478000
@<TRIPOS>BOND
     1     1     2 2   
     2     1    10 1   
     3     1    15 1   
     4     2    16 1   
     5     2    22 1   
     6     3    17 ar  
     7     3    21 ar  
     8     3    23 1   
     9     4     5 ar  
    10     4    17 ar  
    11     4    31 1   
    12     5    18 ar  
    13     5    32 1   
    14     6     7 1   
    15     6    24 1   
    16     6    33 1   
    17     6    34 1   
    18     7    35 1   
    19     7    36 1   
    20     7    37 1   
    21     8     9 1   
    22     8    10 2   
    23     8    22 1   
    24     9    38 1   
    25     9    39 1   
    26     9    40 1   
    27    10    11 1   
    28    11    12 1   
    29    11    25 2   
    30    12    13 1   
    31    12    41 1   
    32    12    42 1   
    33    13    14 1   
    34    13    43 1   
    35    13    44 1   
    36    14    15 1   
    37    14    45 1   
    38    14    46 1   
    39    15    47 1   
    40    15    48 1   
    41    16    23 1   
    42    16    26 2   
    43    17    27 1   
    44    18    21 ar  
    45    18    30 1   
    46    19    20 1   
    47    19    24 1   
    48    19    49 1   
    49    19    50 1   
    50    20    51 1   
    51    20    52 1   
    52    20    53 1   
    53    21    54 1   
    54    22    55 1   
    55    23    56 1   
    56    24    30 1   
    57    27    57 1   
    58    28    30 2   
    59    29    30 2   
@<TRIPOS>SUBSTRUCTURE
     1 L45         1 TEMP              0 ****  ****    0 ROOT
