@<TRIPOS>MOLECULE
L46
   31    31     1     0     0
SMALL
No Charge or Current Charge


@<TRIPOS>ATOM
      1 C4          -1.3130    -0.0360    -0.3680 cc         1 L46      -0.259600
      2 C3          -0.1040     0.7420    -0.3200 cc         1 L46       0.006700
      3 C7           0.9620    -0.1270    -0.1780 cd         1 L46      -0.269600
      4 C5          -0.9660    -1.3740    -0.2890 cd         1 L46      -0.090300
      5 C27         -2.7110     0.5270    -0.4740 c          1 L46       0.609700
      6 C8           2.4060     0.2460    -0.0340 c          1 L46       0.638700
      7 C26         -1.7680    -2.6560    -0.2820 c3         1 L46      -0.039800
      8 C29         -3.9200    -0.4060    -0.5700 c3         1 L46      -0.194100
      9 C1          -0.1940     2.9530     0.9530 c3         1 L46      -0.079100
     10 C2          -0.0440     2.2570    -0.4140 c3         1 L46      -0.023100
     11 N6           0.4200    -1.4200    -0.1780 na         1 L46      -0.093000
     12 N10          3.2480    -0.8400     0.0600 ns         1 L46      -0.515900
     13 O28         -2.9420     1.7290    -0.4830 o          1 L46      -0.538100
     14 O9           2.8390     1.3870     0.0100 o          1 L46      -0.584100
     15 C6           4.7010    -0.7410     0.2140 c3         1 L46       0.092300
     16 H1          -2.3360    -2.7850    -1.2100 hc         1 L46       0.053033
     17 H2          -1.1130    -3.5310    -0.1950 hc         1 L46       0.053033
     18 H3          -2.4580    -2.6980     0.5680 hc         1 L46       0.053033
     19 H4          -3.7820    -1.0950    -1.4070 hc         1 L46       0.055700
     20 H5          -3.9470    -1.0550     0.3100 hc         1 L46       0.055700
     21 H6          -4.8620     0.1450    -0.6700 hc         1 L46       0.055700
     22 H7           0.6110     2.6460     1.6310 hc         1 L46       0.033367
     23 H8          -0.1490     4.0420     0.8360 hc         1 L46       0.033367
     24 H9          -1.1520     2.6950     1.4200 hc         1 L46       0.033367
     25 H10          0.8970     2.5780    -0.8720 hc         1 L46       0.068700
     26 H11         -0.7970     2.6400    -1.1090 hc         1 L46       0.068700
     27 H12          0.9470    -2.2820    -0.0920 hn         1 L46       0.345000
     28 H13          2.8330    -1.7580     0.0110 hn         1 L46       0.306500
     29 H14          5.1290    -0.2060    -0.6440 h1         1 L46       0.041367
     30 H15          4.9400    -0.1990     1.1380 h1         1 L46       0.041367
     31 H16          5.1340    -1.7490     0.2630 h1         1 L46       0.041367
@<TRIPOS>BOND
     1     1     2 1   
     2     1     4 2   
     3     1     5 1   
     4     2     3 2   
     5     2    10 1   
     6     3     6 1   
     7     3    11 1   
     8     4     7 1   
     9     4    11 1   
    10     5     8 1   
    11     5    13 2   
    12     6    12 1   
    13     6    14 2   
    14     7    16 1   
    15     7    17 1   
    16     7    18 1   
    17     8    19 1   
    18     8    20 1   
    19     8    21 1   
    20     9    10 1   
    21     9    22 1   
    22     9    23 1   
    23     9    24 1   
    24    10    25 1   
    25    10    26 1   
    26    11    27 1   
    27    12    15 1   
    28    12    28 1   
    29    15    29 1   
    30    15    30 1   
    31    15    31 1   
@<TRIPOS>SUBSTRUCTURE
     1 L46         1 TEMP              0 ****  ****    0 ROOT
