@<TRIPOS>MOLECULE
L46
   31    31     1     0     0
SMALL
abcg2


@<TRIPOS>ATOM
      1 C4          -1.3170     0.0080    -0.4030 cc         1 L46      -0.259600
      2 C3          -0.1180     0.7980    -0.4150 cc         1 L46       0.006700
      3 C7           0.9350    -0.0860    -0.3770 cd         1 L46      -0.269600
      4 C5          -0.9280    -1.3370    -0.3760 cd         1 L46      -0.090300
      5 C27         -2.6830     0.5280    -0.4370 c          1 L46       0.609700
      6 C8           2.3880     0.1540    -0.3370 c          1 L46       0.638700
      7 C26         -1.6790    -2.6230    -0.3980 c3         1 L46      -0.039800
      8 C29         -3.8390    -0.4420    -0.4390 c3         1 L46      -0.194100
      9 C1          -0.2100     2.8600     1.0200 c3         1 L46      -0.079100
     10 C2          -0.0090     2.2910    -0.3840 c3         1 L46      -0.023100
     11 N6           0.4100    -1.3590    -0.3450 na         1 L46      -0.093000
     12 N10          3.1260    -0.8200     0.2300 ns         1 L46      -0.515900
     13 O28         -2.9080     1.7270    -0.4650 o          1 L46      -0.538100
     14 O9           2.8990     1.1650    -0.8060 o          1 L46      -0.584100
     15 C6           4.5630    -0.7250     0.3260 c3         1 L46       0.092300
     16 H1          -2.2960    -2.7160    -1.2910 hc         1 L46       0.053033
     17 H2          -0.9900    -3.4660    -0.3820 hc         1 L46       0.053033
     18 H3          -2.3390    -2.7210     0.4640 hc         1 L46       0.053033
     19 H4          -3.8080    -1.0960    -1.3110 hc         1 L46       0.055700
     20 H5          -3.8270    -1.0780     0.4470 hc         1 L46       0.055700
     21 H6          -4.7780     0.1070    -0.4540 hc         1 L46       0.055700
     22 H7           0.5400     2.4700     1.7100 hc         1 L46       0.033367
     23 H8          -0.1200     3.9470     1.0120 hc         1 L46       0.033367
     24 H9          -1.1930     2.6090     1.4160 hc         1 L46       0.033367
     25 H10          0.9730     2.5840    -0.7490 hc         1 L46       0.068700
     26 H11         -0.7400     2.7290    -1.0610 hc         1 L46       0.068700
     27 H12          0.9490    -2.2090    -0.4080 hn         1 L46       0.345000
     28 H13          2.6750    -1.5290     0.7840 hn         1 L46       0.306500
     29 H14          5.0060    -0.5180    -0.6460 h1         1 L46       0.041367
     30 H15          4.8820     0.0540     1.0210 h1         1 L46       0.041367
     31 H16          4.9470    -1.6780     0.6800 h1         1 L46       0.041367
@<TRIPOS>BOND
     1     1     2 1   
     2     1     4 2   
     3     1     5 1   
     4     2     3 2   
     5     2    10 1   
     6     3     6 1   
     7     3    11 1   
     8     4     7 1   
     9     4    11 1   
    10     5     8 1   
    11     5    13 2   
    12     6    12 1   
    13     6    14 2   
    14     7    16 1   
    15     7    17 1   
    16     7    18 1   
    17     8    19 1   
    18     8    20 1   
    19     8    21 1   
    20     9    10 1   
    21     9    22 1   
    22     9    23 1   
    23     9    24 1   
    24    10    25 1   
    25    10    26 1   
    26    11    27 1   
    27    12    15 1   
    28    12    28 1   
    29    15    29 1   
    30    15    30 1   
    31    15    31 1   
@<TRIPOS>SUBSTRUCTURE
     1 L46         1 TEMP              0 ****  ****    0 ROOT
