@<TRIPOS>MOLECULE
L47
   37    39     1     0     0
SMALL
bcc


@<TRIPOS>ATOM
      1 C1          -3.7600    -2.7380     0.1020 ca         1 L47      -0.130000
      2 C2          -2.5570    -2.0970     0.3390 ca         1 L47      -0.111000
      3 C3          -2.4020    -0.7140     0.1780 ca         1 L47      -0.098900
      4 C4          -3.5360     0.0070    -0.2300 ca         1 L47       0.055400
      5 C5          -4.7450    -0.6300    -0.4680 ca         1 L47      -0.130000
      6 C6          -4.8600    -2.0010    -0.3060 ca         1 L47      -0.107000
      7 C11         -1.0850    -0.1430     0.4540 ce         1 L47       0.364900
      8 N12         -0.7730     1.0730     0.2260 n2         1 L47      -0.399300
      9 N13          0.5120     1.2840     0.5900 n          1 L47      -0.261800
     10 C14          1.2040     0.0780     1.0480 c5         1 L47       0.139000
     11 C15          0.0440    -0.9350     1.0650 c5         1 L47      -0.157700
     12 C18          2.3220    -0.3230     0.1180 ca         1 L47      -0.053300
     13 C20          1.0780     2.5180     0.5400 c          1 L47       0.698100
     14 C21          0.2060     3.6290     0.0230 c3         1 L47      -0.160100
     15 O25          2.2300     2.6740     0.9060 o          1 L47      -0.577100
     16 C26          2.1420    -0.3090    -1.2610 ca         1 L47      -0.149000
     17 C27          3.1700    -0.7380    -2.0880 ca         1 L47      -0.094000
     18 C28          4.3730    -1.1850    -1.5630 ca         1 L47      -0.156000
     19 C29          4.5510    -1.2010    -0.1820 ca         1 L47       0.139100
     20 C30          3.5240    -0.7660     0.6530 ca         1 L47      -0.203000
     21 CL35        -3.5200     1.7220    -0.4470 cl         1 L47      -0.085400
     22 O36          5.7330    -1.6380     0.2960 oh         1 L47      -0.495100
     23 H1          -3.8330    -3.8080     0.2360 ha         1 L47       0.139000
     24 H2          -1.7100    -2.6900     0.6540 ha         1 L47       0.134000
     25 H5          -5.6010    -0.0480    -0.7800 ha         1 L47       0.149000
     26 H6          -5.8090    -2.4840    -0.4980 ha         1 L47       0.139000
     27 H14          1.6000     0.2400     2.0510 h1         1 L47       0.081700
     28 H151        -0.2120    -1.2480     2.0790 hc         1 L47       0.075200
     29 H152         0.2870    -1.8350     0.5000 hc         1 L47       0.075200
     30 H211        -0.1500     3.4170    -0.9840 hc         1 L47       0.067367
     31 H212        -0.6770     3.7590     0.6490 hc         1 L47       0.067367
     32 H213         0.7740     4.5550     0.0130 hc         1 L47       0.067367
     33 H26          1.2120     0.0350    -1.6960 ha         1 L47       0.139000
     34 H27          3.0350    -0.7260    -3.1620 ha         1 L47       0.134000
     35 H28          5.1720    -1.5170    -2.2140 ha         1 L47       0.147000
     36 H30          3.6650    -0.7710     1.7290 ha         1 L47       0.131000
     37 H36          5.7420    -1.5980     1.2590 ho         1 L47       0.426000
@<TRIPOS>BOND
     1     1     2 ar  
     2     1     6 ar  
     3     1    23 1   
     4     2     3 ar  
     5     2    24 1   
     6     3     4 ar  
     7     3     7 1   
     8     4     5 ar  
     9     4    21 1   
    10     5     6 ar  
    11     5    25 1   
    12     6    26 1   
    13     7     8 2   
    14     7    11 1   
    15     8     9 1   
    16     9    10 1   
    17     9    13 1   
    18    10    11 1   
    19    10    12 1   
    20    10    27 1   
    21    11    28 1   
    22    11    29 1   
    23    12    16 ar  
    24    12    20 ar  
    25    13    14 1   
    26    13    15 2   
    27    14    30 1   
    28    14    31 1   
    29    14    32 1   
    30    16    17 ar  
    31    16    33 1   
    32    17    18 ar  
    33    17    34 1   
    34    18    19 ar  
    35    18    35 1   
    36    19    20 ar  
    37    19    22 1   
    38    20    36 1   
    39    22    37 1   
@<TRIPOS>SUBSTRUCTURE
     1 L47         1 TEMP              0 ****  ****    0 ROOT
