@<TRIPOS>MOLECULE
L47
   37    39     1     0     0
SMALL
No Charge or Current Charge


@<TRIPOS>ATOM
      1 C1          -3.6570    -2.6940    -0.6080 ca         1 L47      -0.112000
      2 C2          -2.4510    -2.0970    -0.2060 ca         1 L47      -0.093000
      3 C3          -2.4160    -0.7520     0.2280 ca         1 L47      -0.098900
      4 C4          -3.6260    -0.0100     0.2340 ca         1 L47       0.147000
      5 C5          -4.8290    -0.6160    -0.1690 ca         1 L47      -0.112000
      6 C6          -4.8480    -1.9540    -0.5900 ca         1 L47      -0.089000
      7 C11         -1.0980    -0.1490     0.6000 ce         1 L47       0.364900
      8 N12         -0.7340     1.0450     0.2810 n2         1 L47      -0.399300
      9 N13          0.5480     1.3090     0.6480 n          1 L47      -0.194800
     10 C14          1.2200     0.1530     1.2590 c5         1 L47       0.139000
     11 C15          0.0310    -0.8750     1.3410 c5         1 L47      -0.157700
     12 C18          2.2610    -0.3870     0.2650 ca         1 L47      -0.053300
     13 C20          1.1860     2.5670     0.4760 c          1 L47       0.631100
     14 C21          0.3910     3.6860    -0.2030 c3         1 L47      -0.160100
     15 O25          2.3330     2.7660     0.8630 o          1 L47      -0.577100
     16 C26          1.9310    -0.6990    -1.0750 ca         1 L47      -0.131000
     17 C27          2.9060    -1.1900    -1.9600 ca         1 L47      -0.076000
     18 C28          4.2250    -1.3730    -1.5170 ca         1 L47      -0.138000
     19 C29          4.5670    -1.0660    -0.1920 ca         1 L47       0.139100
     20 C30          3.5920    -0.5760     0.6920 ca         1 L47      -0.185000
     21 Cl35        -3.7120     1.6620     0.7980 cl         1 L47      -0.177000
     22 O36          5.8490    -1.2450     0.2330 oh         1 L47      -0.534100
     23 H1          -3.6670    -3.7300    -0.9390 ha         1 L47       0.121000
     24 H2          -1.5380    -2.6860    -0.2450 ha         1 L47       0.116000
     25 H5          -5.7540    -0.0430    -0.1490 ha         1 L47       0.131000
     26 H6          -5.7830    -2.4160    -0.9010 ha         1 L47       0.121000
     27 H14          1.6500     0.3880     2.2430 h1         1 L47       0.081700
     28 H151        -0.2590    -1.0540     2.3810 hc         1 L47       0.075200
     29 H152         0.2720    -1.8480     0.9010 hc         1 L47       0.075200
     30 H211         0.0380     3.3310    -1.1780 hc         1 L47       0.067367
     31 H212        -0.5450     3.8400     0.3440 hc         1 L47       0.067367
     32 H213         0.9640     4.6150    -0.2930 hc         1 L47       0.067367
     33 H26          0.9150    -0.5610    -1.4380 ha         1 L47       0.121000
     34 H27          2.6390    -1.4260    -2.9870 ha         1 L47       0.116000
     35 H28          4.9820    -1.7520    -2.2000 ha         1 L47       0.129000
     36 H30          3.8630    -0.3380     1.7180 ha         1 L47       0.113000
     37 H36          5.9030    -0.9770     1.1750 ho         1 L47       0.465000
@<TRIPOS>BOND
     1     1     2 ar  
     2     1     6 ar  
     3     1    23 1   
     4     2     3 ar  
     5     2    24 1   
     6     3     4 ar  
     7     3     7 1   
     8     4     5 ar  
     9     4    21 1   
    10     5     6 ar  
    11     5    25 1   
    12     6    26 1   
    13     7     8 2   
    14     7    11 1   
    15     8     9 1   
    16     9    10 1   
    17     9    13 1   
    18    10    11 1   
    19    10    12 1   
    20    10    27 1   
    21    11    28 1   
    22    11    29 1   
    23    12    16 ar  
    24    12    20 ar  
    25    13    14 1   
    26    13    15 2   
    27    14    30 1   
    28    14    31 1   
    29    14    32 1   
    30    16    17 ar  
    31    16    33 1   
    32    17    18 ar  
    33    17    34 1   
    34    18    19 ar  
    35    18    35 1   
    36    19    20 ar  
    37    19    22 1   
    38    20    36 1   
    39    22    37 1   
@<TRIPOS>SUBSTRUCTURE
     1 L47         1 TEMP              0 ****  ****    0 ROOT
