@<TRIPOS>MOLECULE
L49
   41    43     1     0     0
SMALL
bcc


@<TRIPOS>ATOM
      1 F3          24.6560    -8.2640    20.4570 f          1 L49      -0.232300
      2 C15         23.9540    -8.8520    21.4300 c3         1 L49       0.724200
      3 F1          24.5310   -10.0340    21.6760 f          1 L49      -0.232300
      4 F2          24.1180    -8.1080    22.5340 f          1 L49      -0.232300
      5 C14         22.5080    -9.0040    21.0770 ca         1 L49      -0.211300
      6 C13         21.9580    -8.2670    20.0420 ca         1 L49      -0.020000
      7 C16         21.7120    -9.8710    21.8190 ca         1 L49      -0.049000
      8 C17         20.3670    -9.9980    21.5160 ca         1 L49      -0.152000
      9 C18         19.8100    -9.2640    20.4790 ca         1 L49      -0.047000
     10 C           20.6070    -8.3960    19.7390 ca         1 L49      -0.144600
     11 C1          20.0780    -7.5720    18.6210 c          1 L49       0.666700
     12 O           20.7610    -6.8280    17.9650 o          1 L49      -0.519000
     13 O1          18.7770    -7.7580    18.4350 os         1 L49      -0.426900
     14 C2          18.0670    -6.9400    17.5000 c3         1 L49       0.184400
     15 C9          17.2920    -5.8920    18.2970 c3         1 L49       0.029300
     16 N           18.1600    -5.1060    19.1410 na         1 L49      -0.198900
     17 C12         18.4600    -5.3650    20.4350 cc         1 L49       0.385400
     18 N1          19.3520    -4.5330    20.9050 nd         1 L49      -0.667000
     19 C11         19.6550    -3.7010    19.8640 cd         1 L49       0.302200
     20 C10         18.9300    -4.0420    18.7590 cc         1 L49      -0.256600
     21 C3          17.1520    -7.8220    16.6970 ca         1 L49      -0.125300
     22 C8          17.1480    -7.7390    15.3100 ca         1 L49      -0.078000
     23 C7          16.3060    -8.5380    14.5490 ca         1 L49      -0.173000
     24 C6          15.4740    -9.4250    15.2010 ca         1 L49       0.151900
     25 F           14.6660   -10.2110    14.4740 f          1 L49      -0.137900
     26 C5          15.4500    -9.5320    16.5790 ca         1 L49      -0.173000
     27 C4          16.2930    -8.7220    17.3240 ca         1 L49      -0.078000
     28 H1          22.5670    -7.5890    19.4610 ha         1 L49       0.174000
     29 H2          22.1300   -10.4530    22.6310 ha         1 L49       0.150000
     30 H3          19.7480   -10.6740    22.0900 ha         1 L49       0.144000
     31 H4          18.7580    -9.3780    20.2570 ha         1 L49       0.148000
     32 H5          18.7700    -6.4380    16.8320 h1         1 L49       0.087700
     33 H6          16.7680    -5.2340    17.6040 h1         1 L49       0.073200
     34 H7          16.5410    -6.3700    18.9290 h1         1 L49       0.073200
     35 H8          17.9820    -6.1630    20.9840 h5         1 L49       0.053100
     36 H9          20.3720    -2.9000    19.9630 h4         1 L49       0.040100
     37 H10         18.8920    -3.6320    17.7640 h4         1 L49       0.175000
     38 H11         17.8130    -7.0460    14.8090 ha         1 L49       0.140500
     39 H12         16.3060    -8.4740    13.4680 ha         1 L49       0.155000
     40 H13         14.7860   -10.2360    17.0640 ha         1 L49       0.155000
     41 H14         16.2750    -8.8070    18.4030 ha         1 L49       0.140500
@<TRIPOS>BOND
     1     1     2 1   
     2     2     3 1   
     3     2     4 1   
     4     2     5 1   
     5     5     6 ar  
     6     5     7 ar  
     7     6    10 ar  
     8     6    28 1   
     9     7     8 ar  
    10     7    29 1   
    11     8     9 ar  
    12     8    30 1   
    13     9    10 ar  
    14     9    31 1   
    15    10    11 1   
    16    11    12 2   
    17    11    13 1   
    18    13    14 1   
    19    14    15 1   
    20    14    21 1   
    21    14    32 1   
    22    15    16 1   
    23    15    33 1   
    24    15    34 1   
    25    16    17 1   
    26    16    20 1   
    27    17    18 2   
    28    17    35 1   
    29    18    19 1   
    30    19    20 2   
    31    19    36 1   
    32    20    37 1   
    33    21    22 ar  
    34    21    27 ar  
    35    22    23 ar  
    36    22    38 1   
    37    23    24 ar  
    38    23    39 1   
    39    24    25 1   
    40    24    26 ar  
    41    26    27 ar  
    42    26    40 1   
    43    27    41 1   
@<TRIPOS>SUBSTRUCTURE
     1 L49         1 TEMP              0 ****  ****    0 ROOT
