@<TRIPOS>MOLECULE
L49
   41    43     1     0     0
SMALL
No Charge or Current Charge


@<TRIPOS>ATOM
      1 F3          24.8270    -8.4650    20.6780 f          1 L49      -0.111000
      2 C15         24.0180    -8.8970    21.6730 c3         1 L49       0.360300
      3 F1          24.5910   -10.0140    22.1770 f          1 L49      -0.111000
      4 F2          24.0560    -7.9600    22.6470 f          1 L49      -0.111000
      5 C14         22.5850    -9.1360    21.1870 ca         1 L49      -0.211300
      6 C13         22.0120    -8.2770    20.2230 ca         1 L49      -0.002000
      7 C16         21.8120   -10.1940    21.7100 ca         1 L49      -0.031000
      8 C17         20.4970   -10.3950    21.2640 ca         1 L49      -0.134000
      9 C18         19.9350    -9.5450    20.2980 ca         1 L49      -0.029000
     10 C           20.6890    -8.4740    19.7690 ca         1 L49      -0.144600
     11 C1          20.1070    -7.5370    18.7380 c          1 L49       0.617700
     12 O           20.7550    -6.6350    18.2250 o          1 L49      -0.470000
     13 O1          18.8070    -7.8310    18.4050 os         1 L49      -0.450100
     14 C2          18.0870    -6.9620    17.5040 c3         1 L49       0.207600
     15 C9          17.3300    -5.8910    18.3310 c3         1 L49       0.058600
     16 N           18.1920    -4.9640    19.0850 na         1 L49      -0.177500
     17 C12         18.5260    -5.0660    20.4200 cc         1 L49       0.385400
     18 N1          19.3160    -4.0660    20.7840 nd         1 L49      -0.667000
     19 C11         19.4970    -3.3000    19.6510 cd         1 L49       0.236900
     20 C10         18.8090    -3.8340    18.5920 cc         1 L49      -0.224000
     21 C3          17.1200    -7.8320    16.7030 ca         1 L49      -0.125300
     22 C8          17.1210    -7.7740    15.2930 ca         1 L49      -0.060000
     23 C7          16.2300    -8.5710    14.5510 ca         1 L49      -0.155000
     24 C6          15.3390    -9.4270    15.2130 ca         1 L49       0.187000
     25 F           14.4840   -10.1920    14.4990 f          1 L49      -0.173000
     26 C5          15.3300    -9.4940    16.6140 ca         1 L49      -0.155000
     27 C4          16.2190    -8.6990    17.3590 ca         1 L49      -0.060000
     28 H1          22.5980    -7.4490    19.8270 ha         1 L49       0.156000
     29 H2          22.2220   -10.8630    22.4640 ha         1 L49       0.132000
     30 H3          19.9080   -11.2150    21.6700 ha         1 L49       0.126000
     31 H4          18.9130    -9.7250    19.9720 ha         1 L49       0.130000
     32 H5          18.7650    -6.4600    16.8000 h1         1 L49       0.087700
     33 H6          16.7070    -5.3000    17.6490 h1         1 L49       0.073200
     34 H7          16.6550    -6.3920    19.0360 h1         1 L49       0.073200
     35 H8          18.1710    -5.8730    21.0500 h5         1 L49       0.053100
     36 H9          20.1100    -2.4060    19.6590 h4         1 L49       0.040100
     37 H10         18.7230    -3.5030    17.5650 h4         1 L49       0.157000
     38 H11         17.8090    -7.1130    14.7700 ha         1 L49       0.122500
     39 H12         16.2310    -8.5260    13.4650 ha         1 L49       0.137000
     40 H13         14.6380   -10.1610    17.1200 ha         1 L49       0.137000
     41 H14         16.2100    -8.7600    18.4460 ha         1 L49       0.122500
@<TRIPOS>BOND
     1     1     2 1   
     2     2     3 1   
     3     2     4 1   
     4     2     5 1   
     5     5     6 ar  
     6     5     7 ar  
     7     6    10 ar  
     8     6    28 1   
     9     7     8 ar  
    10     7    29 1   
    11     8     9 ar  
    12     8    30 1   
    13     9    10 ar  
    14     9    31 1   
    15    10    11 1   
    16    11    12 2   
    17    11    13 1   
    18    13    14 1   
    19    14    15 1   
    20    14    21 1   
    21    14    32 1   
    22    15    16 1   
    23    15    33 1   
    24    15    34 1   
    25    16    17 1   
    26    16    20 1   
    27    17    18 2   
    28    17    35 1   
    29    18    19 1   
    30    19    20 2   
    31    19    36 1   
    32    20    37 1   
    33    21    22 ar  
    34    21    27 ar  
    35    22    23 ar  
    36    22    38 1   
    37    23    24 ar  
    38    23    39 1   
    39    24    25 1   
    40    24    26 ar  
    41    26    27 ar  
    42    26    40 1   
    43    27    41 1   
@<TRIPOS>SUBSTRUCTURE
     1 L49         1 TEMP              0 ****  ****    0 ROOT
