@<TRIPOS>MOLECULE
L4A
   24    24     1     0     0
SMALL
No Charge or Current Charge


@<TRIPOS>ATOM
      1 C1           1.4390     0.0020    -0.4030 cc         1 L4A       0.377300
      2 C2          -0.4480     0.9920    -0.1220 cd         1 L4A       0.215500
      3 C3          -0.5870    -0.3460     0.2060 cc         1 L4A       0.090300
      4 C4          -1.7420    -1.1830     0.6990 c3         1 L4A      -0.083700
      5 C5          -2.6330    -1.6950    -0.4470 c3         1 L4A       0.157600
      6 C6          -1.5730     2.0170    -0.0540 c          1 L4A       0.629500
      7 C7           2.8680    -0.3450    -0.6990 c3         1 L4A      -0.089700
      8 O1           0.6040    -0.9790     0.0290 os         1 L4A      -0.305000
      9 O2          -3.6770    -2.5210     0.0830 oh         1 L4A      -0.673000
     10 O3          -2.6950     1.6800     0.3040 o          1 L4A      -0.708500
     11 O4          -1.3300     3.1770    -0.3680 o          1 L4A      -0.708500
     12 O6           5.0750    -0.7550     0.2300 oh         1 L4A      -0.671000
     13 C8           3.7270    -0.4160     0.5750 c3         1 L4A       0.156600
     14 N1           0.8800     1.1910    -0.5130 nd         1 L4A      -0.635000
     15 H1          -1.3510    -2.0470     1.2510 hc         1 L4A       0.068700
     16 H2          -2.3470    -0.6180     1.4160 hc         1 L4A       0.068700
     17 H3          -3.0590    -0.8390    -0.9880 h1         1 L4A       0.029700
     18 H4          -2.0170    -2.2670    -1.1540 h1         1 L4A       0.029700
     19 H5           2.9070    -1.3100    -1.2170 hc         1 L4A       0.066200
     20 H6           3.2940     0.3990    -1.3820 hc         1 L4A       0.066200
     21 H7          -4.2250    -2.8130    -0.6800 ho         1 L4A       0.428000
     22 H9           5.5860    -0.7870     1.0700 ho         1 L4A       0.434000
     23 H10          3.6950     0.5550     1.0870 h1         1 L4A       0.028200
     24 H11          3.3050    -1.1700     1.2540 h1         1 L4A       0.028200
@<TRIPOS>BOND
     1     1     7 1   
     2     1     8 1   
     3     1    14 2   
     4     2     3 2   
     5     2     6 1   
     6     2    14 1   
     7     3     4 1   
     8     3     8 1   
     9     4     5 1   
    10     4    15 1   
    11     4    16 1   
    12     5     9 1   
    13     5    17 1   
    14     5    18 1   
    15     6    10 1   
    16     6    11 1   
    17     7    13 1   
    18     7    19 1   
    19     7    20 1   
    20     9    21 1   
    21    12    13 1   
    22    12    22 1   
    23    13    23 1   
    24    13    24 1   
@<TRIPOS>SUBSTRUCTURE
     1 L4A         1 TEMP              0 ****  ****    0 ROOT
