@<TRIPOS>MOLECULE
L4A
   24    24     1     0     0
SMALL
bcc


@<TRIPOS>ATOM
      1 C1           1.4030     0.1000    -0.4120 cc         1 L4A       0.421700
      2 C2          -0.4980     1.0100    -0.1240 cd         1 L4A       0.215500
      3 C3          -0.6140    -0.2870     0.2560 cc         1 L4A       0.134700
      4 C4          -1.7150    -1.1510     0.7470 c3         1 L4A      -0.083700
      5 C5          -2.5030    -1.7560    -0.4080 c3         1 L4A       0.134400
      6 C6          -1.5520     2.0810    -0.1310 c          1 L4A       0.840100
      7 C7           2.8180    -0.2390    -0.7000 c3         1 L4A      -0.089700
      8 O1           0.6020    -0.8690     0.0660 os         1 L4A      -0.393800
      9 O2          -3.5050    -2.5900     0.1290 oh         1 L4A      -0.610800
     10 O3          -2.6920     1.7260     0.2360 o          1 L4A      -0.813800
     11 O4          -1.1960     3.2120    -0.5010 o          1 L4A      -0.813800
     12 O6           4.9380    -0.8150     0.1900 oh         1 L4A      -0.608800
     13 C8           3.6120    -0.5280     0.5690 c3         1 L4A       0.133400
     14 N1           0.8050     1.2300    -0.5400 nd         1 L4A      -0.635000
     15 H1          -1.3040    -1.9480     1.3720 hc         1 L4A       0.068700
     16 H2          -2.3830    -0.5490     1.3600 hc         1 L4A       0.068700
     17 H3          -2.9280    -0.9400    -1.0020 h1         1 L4A       0.029700
     18 H4          -1.8220    -2.3150    -1.0630 h1         1 L4A       0.029700
     19 H5           2.8650    -1.1060    -1.3660 hc         1 L4A       0.066200
     20 H6           3.2600     0.6060    -1.2280 hc         1 L4A       0.066200
     21 H7          -4.0470    -2.9110    -0.5960 ho         1 L4A       0.389000
     22 H9           5.4400    -1.0160     0.9850 ho         1 L4A       0.395000
     23 H10          3.5570     0.3450     1.2320 h1         1 L4A       0.028200
     24 H11          3.1560    -1.3680     1.1060 h1         1 L4A       0.028200
@<TRIPOS>BOND
     1     1     7 1   
     2     1     8 1   
     3     1    14 2   
     4     2     3 2   
     5     2     6 1   
     6     2    14 1   
     7     3     4 1   
     8     3     8 1   
     9     4     5 1   
    10     4    15 1   
    11     4    16 1   
    12     5     9 1   
    13     5    17 1   
    14     5    18 1   
    15     6    10 1   
    16     6    11 1   
    17     7    13 1   
    18     7    19 1   
    19     7    20 1   
    20     9    21 1   
    21    12    13 1   
    22    12    22 1   
    23    13    23 1   
    24    13    24 1   
@<TRIPOS>SUBSTRUCTURE
     1 L4A         1 TEMP              0 ****  ****    0 ROOT
