@<TRIPOS>MOLECULE
L4B
   68    72     1     0     0
SMALL
bcc


@<TRIPOS>ATOM
      1 C4          13.3100    -8.9810   -13.2250 c6         1 L4B      -0.066400
      2 C5          14.0770   -10.2040   -13.7490 c6         1 L4B      -0.034000
      3 C6          13.0980   -11.0040   -14.6190 c3         1 L4B      -0.081600
      4 C7          15.2330    -9.7690   -14.6550 c3         1 L4B      -0.081600
      5 C8          16.6770    -9.8340   -11.7920 c3         1 L4B      -0.075100
      6 C10         15.1720   -12.3860   -12.8990 c6         1 L4B      -0.067400
      7 C13         17.4850   -12.6750   -10.8240 c3         1 L4B      -0.072100
      8 C17         16.1820   -13.0390    -7.8870 c5         1 L4B       0.033300
      9 C20         15.9670   -15.0550    -9.2300 c5         1 L4B      -0.008100
     10 C21         15.6660   -15.3520    -7.7870 ca         1 L4B      -0.120300
     11 C22         15.7110   -14.1900    -7.0030 ca         1 L4B      -0.058300
     12 C24         14.9760   -15.4820    -5.1360 ca         1 L4B      -0.155000
     13 C26         15.3260   -16.5780    -7.2530 ca         1 L4B       0.093100
     14 C18         17.7110   -12.9760    -7.7270 c3         1 L4B      -0.081100
     15 C16         15.5740   -11.6550    -7.6770 c6         1 L4B      -0.065400
     16 C14         15.3340   -11.3250   -10.1990 c6         1 L4B      -0.048700
     17 C1          15.2780   -10.3290   -11.3950 c6         1 L4B      -0.020000
     18 C2          14.4370    -9.1070   -10.9780 c6         1 L4B      -0.072400
     19 C3          14.0470    -8.2090   -12.1450 c6         1 L4B      -0.071400
     20 C9          14.5040   -11.0630   -12.5300 c6         1 L4B      -0.042700
     21 C11         15.2510   -13.3240   -11.7000 c6         1 L4B      -0.073400
     22 C12         15.9830   -12.7080   -10.4990 c6         1 L4B      -0.013000
     23 C19         15.6730   -13.5550    -9.2560 c5         1 L4B      -0.075700
     24 C23         15.3780   -14.2430    -5.6540 ca         1 L4B      -0.094600
     25 C29         15.4090   -13.0690    -4.6850 c          1 L4B       0.926200
     26 O30         14.3880   -12.9060    -3.9890 o          1 L4B      -0.823300
     27 O31         16.4600   -12.3980    -4.6380 o          1 L4B      -0.823300
     28 C25         14.9750   -16.6360    -5.8990 ca         1 L4B       0.016100
     29 O28         14.6240   -17.8600    -5.4250 oh         1 L4B      -0.543100
     30 O27         15.3190   -17.6740    -8.0480 oh         1 L4B      -0.516100
     31 H1          13.0610    -8.3210   -14.0630 hc         1 L4B       0.031700
     32 H2          12.3530    -9.3250   -12.8130 hc         1 L4B       0.031700
     33 H3          12.2960   -11.4420   -14.0200 hc         1 L4B       0.028367
     34 H4          12.6350   -10.3490   -15.3610 hc         1 L4B       0.028367
     35 H5          13.5850   -11.8120   -15.1670 hc         1 L4B       0.028367
     36 H6          15.9060    -9.0540   -14.1890 hc         1 L4B       0.028367
     37 H7          15.8320   -10.6220   -14.9780 hc         1 L4B       0.028367
     38 H8          14.8370    -9.2930   -15.5560 hc         1 L4B       0.028367
     39 H9          17.3010    -9.6840   -10.9100 hc         1 L4B       0.028367
     40 H10         17.2090   -10.5150   -12.4520 hc         1 L4B       0.028367
     41 H11         16.6390    -8.8730   -12.3030 hc         1 L4B       0.028367
     42 H12         14.6040   -12.8870   -13.6850 hc         1 L4B       0.031200
     43 H13         16.1680   -12.2180   -13.3210 hc         1 L4B       0.031200
     44 H14         18.0280   -11.8980   -10.2920 hc         1 L4B       0.028367
     45 H15         17.9520   -13.6280   -10.5700 hc         1 L4B       0.028367
     46 H16         17.6630   -12.5120   -11.8860 hc         1 L4B       0.028367
     47 H17         16.9210   -10.5250    -8.9400 hc         1 L4B       0.031200
     48 H18         15.3710    -9.7820    -8.6790 hc         1 L4B       0.031200
     49 H19         15.3390   -15.6210    -9.9200 hc         1 L4B       0.040700
     50 H20         17.0080   -15.2890    -9.4830 hc         1 L4B       0.040700
     51 H21         14.6720   -15.5480    -4.0960 ha         1 L4B       0.138000
     52 H22         17.9350   -12.8260    -6.6710 hc         1 L4B       0.036367
     53 H23         18.2010   -13.8970    -8.0460 hc         1 L4B       0.036367
     54 H24         18.1640   -12.1550    -8.2780 hc         1 L4B       0.036367
     55 H25         15.9600   -11.1930    -6.7690 hc         1 L4B       0.066700
     56 H26         14.4910   -11.7520    -7.5470 hc         1 L4B       0.066700
     57 H27         14.2750   -11.5620   -10.0120 hc         1 L4B       0.039700
     58 H28         14.9750    -8.5100   -10.2370 hc         1 L4B       0.042200
     59 H29         13.5230    -9.4580   -10.4830 hc         1 L4B       0.042200
     60 H30         14.9310    -7.7180   -12.5620 hc         1 L4B       0.032200
     61 H31         13.4110    -7.3990   -11.7760 hc         1 L4B       0.032200
     62 H32         13.5460   -11.3390   -12.0600 hc         1 L4B       0.040700
     63 H33         14.2300   -13.5880   -11.4000 hc         1 L4B       0.038200
     64 H34         15.7390   -14.2610   -11.9880 hc         1 L4B       0.038200
     65 H35         14.5780   -13.5010    -9.1600 hc         1 L4B       0.043700
     66 H37         14.3680   -17.8050    -4.4980 ho         1 L4B       0.423000
     67 H38         15.0100   -18.4420    -7.5530 ho         1 L4B       0.423000
     68 C15         15.8510   -10.7420    -8.8780 c6         1 L4B      -0.069400
@<TRIPOS>BOND
     1     1     2 1   
     2     1    19 1   
     3     1    31 1   
     4     1    32 1   
     5     2     3 1   
     6     2     4 1   
     7     2    20 1   
     8     3    33 1   
     9     3    34 1   
    10     3    35 1   
    11     4    36 1   
    12     4    37 1   
    13     4    38 1   
    14     5    17 1   
    15     5    39 1   
    16     5    40 1   
    17     5    41 1   
    18     6    20 1   
    19     6    21 1   
    20     6    42 1   
    21     6    43 1   
    22     7    22 1   
    23     7    44 1   
    24     7    45 1   
    25     7    46 1   
    26     8    11 1   
    27     8    14 1   
    28     8    15 1   
    29     8    23 1   
    30     9    10 1   
    31     9    23 1   
    32     9    49 1   
    33     9    50 1   
    34    10    11 ar  
    35    10    13 ar  
    36    11    24 ar  
    37    12    24 ar  
    38    12    28 ar  
    39    12    51 1   
    40    13    28 ar  
    41    13    30 1   
    42    14    52 1   
    43    14    53 1   
    44    14    54 1   
    45    15    55 1   
    46    15    56 1   
    47    15    68 1   
    48    16    17 1   
    49    16    22 1   
    50    16    57 1   
    51    16    68 1   
    52    17    18 1   
    53    17    20 1   
    54    18    19 1   
    55    18    58 1   
    56    18    59 1   
    57    19    60 1   
    58    19    61 1   
    59    20    62 1   
    60    21    22 1   
    61    21    63 1   
    62    21    64 1   
    63    22    23 1   
    64    23    65 1   
    65    24    25 1   
    66    25    26 1   
    67    25    27 1   
    68    28    29 1   
    69    29    66 1   
    70    30    67 1   
    71    47    68 1   
    72    48    68 1   
@<TRIPOS>SUBSTRUCTURE
     1 L4B         1 TEMP              0 ****  ****    0 ROOT
