@<TRIPOS>MOLECULE
L4B
   68    72     1     0     0
SMALL
No Charge or Current Charge


@<TRIPOS>ATOM
      1 C4          13.2470    -8.8880   -13.2240 c6         1 L4B      -0.066400
      2 C5          14.0120   -10.1120   -13.8220 c6         1 L4B      -0.034000
      3 C6          12.9860   -10.8290   -14.7680 c3         1 L4B      -0.081600
      4 C7          15.1710    -9.6380   -14.7640 c3         1 L4B      -0.081600
      5 C8          16.7380    -9.8920   -11.8580 c3         1 L4B      -0.075100
      6 C10         15.1170   -12.4200   -13.2000 c6         1 L4B      -0.067400
      7 C13         17.6180   -12.6830   -10.7430 c3         1 L4B      -0.072100
      8 C17         16.2600   -13.0750    -7.7800 c5         1 L4B       0.033300
      9 C20         16.1380   -15.1610    -9.1430 c5         1 L4B      -0.008100
     10 C21         15.7310   -15.4110    -7.7020 ca         1 L4B      -0.120300
     11 C22         15.7410   -14.2410    -6.9410 ca         1 L4B      -0.058300
     12 C24         14.9550   -15.4980    -5.0120 ca         1 L4B      -0.137000
     13 C26         15.3350   -16.6350    -7.1410 ca         1 L4B       0.093100
     14 C18         17.8000   -12.9630    -7.5520 c3         1 L4B      -0.081100
     15 C16         15.5920   -11.6870    -7.5720 c6         1 L4B      -0.065400
     16 C14         15.3720   -11.3730   -10.1810 c6         1 L4B      -0.048700
     17 C1          15.3070   -10.3930   -11.4450 c6         1 L4B      -0.020000
     18 C2          14.4710    -9.1100   -11.0120 c6         1 L4B      -0.072400
     19 C3          14.0390    -8.1260   -12.1500 c6         1 L4B      -0.071400
     20 C9          14.4790   -11.0880   -12.6460 c6         1 L4B      -0.042700
     21 C11         15.1030   -13.5400   -12.1510 c6         1 L4B      -0.073400
     22 C12         16.0920   -12.7520   -10.4160 c6         1 L4B      -0.013000
     23 C19         15.7760   -13.6360    -9.1750 c5         1 L4B      -0.075700
     24 C23         15.3620   -14.2660    -5.5760 ca         1 L4B      -0.094600
     25 C29         15.3810   -13.0360    -4.7060 c          1 L4B       0.715600
     26 O30         14.3110   -12.5080    -4.4370 o          1 L4B      -0.718000
     27 O31         16.4490   -12.6820    -4.2270 o          1 L4B      -0.718000
     28 C25         14.9440   -16.6810    -5.7860 ca         1 L4B       0.016100
     29 O28         14.5540   -17.8780    -5.2330 oh         1 L4B      -0.582100
     30 O27         15.3160   -17.7820    -7.8840 oh         1 L4B      -0.555100
     31 H1          12.9660    -8.1890   -14.0240 hc         1 L4B       0.031700
     32 H2          12.3020    -9.2300   -12.7790 hc         1 L4B       0.031700
     33 H3          12.2070   -11.3490   -14.1990 hc         1 L4B       0.028367
     34 H4          12.4780   -10.1110   -15.4240 hc         1 L4B       0.028367
     35 H5          13.4590   -11.5600   -15.4340 hc         1 L4B       0.028367
     36 H6          15.8680    -8.9520   -14.2810 hc         1 L4B       0.028367
     37 H7          15.7520   -10.4820   -15.1530 hc         1 L4B       0.028367
     38 H8          14.7740    -9.0980   -15.6320 hc         1 L4B       0.028367
     39 H9          17.3950    -9.7890   -10.9880 hc         1 L4B       0.028367
     40 H10         17.2340   -10.5530   -12.5730 hc         1 L4B       0.028367
     41 H11         16.7270    -8.8990   -12.3120 hc         1 L4B       0.028367
     42 H12         14.5730   -12.8040   -14.0690 hc         1 L4B       0.031200
     43 H13         16.1420   -12.2490   -13.5480 hc         1 L4B       0.031200
     44 H14         18.1300   -11.8650   -10.2290 hc         1 L4B       0.028367
     45 H15         18.1330   -13.6130   -10.4820 hc         1 L4B       0.028367
     46 H16         17.7850   -12.5490   -11.8150 hc         1 L4B       0.028367
     47 H17         16.9200   -10.4250    -8.7730 hc         1 L4B       0.031200
     48 H18         15.3210    -9.7890    -8.5200 hc         1 L4B       0.031200
     49 H19         15.5540   -15.7400    -9.8670 hc         1 L4B       0.040700
     50 H20         17.2000   -15.3660    -9.3160 hc         1 L4B       0.040700
     51 H21         14.6580   -15.5300    -3.9660 ha         1 L4B       0.120000
     52 H22         18.0220   -12.8280    -6.4870 hc         1 L4B       0.036367
     53 H23         18.3290   -13.8660    -7.8730 hc         1 L4B       0.036367
     54 H24         18.2530   -12.1120    -8.0650 hc         1 L4B       0.036367
     55 H25         15.9540   -11.2180    -6.6480 hc         1 L4B       0.066700
     56 H26         14.5080   -11.8190    -7.4480 hc         1 L4B       0.066700
     57 H27         14.3160   -11.6230   -10.0130 hc         1 L4B       0.039700
     58 H28         15.0420    -8.5210   -10.2830 hc         1 L4B       0.042200
     59 H29         13.5620    -9.4340   -10.4870 hc         1 L4B       0.042200
     60 H30         14.9090    -7.6250   -12.5920 hc         1 L4B       0.032200
     61 H31         13.4120    -7.3290   -11.7280 hc         1 L4B       0.032200
     62 H32         12.9810   -11.5860   -11.9150 hc         1 L4B       0.040700
     63 H33         14.0700   -13.8210   -11.9030 hc         1 L4B       0.038200
     64 H34         15.6160   -14.4390   -12.5180 hc         1 L4B       0.038200
     65 H35         14.6780   -13.6230    -9.1740 hc         1 L4B       0.043700
     66 H37         14.3100   -17.7520    -4.2880 ho         1 L4B       0.462000
     67 H38         15.0050   -18.4850    -7.2710 ho         1 L4B       0.462000
     68 C15         15.8530   -10.7260    -8.7800 c6         1 L4B      -0.069400
@<TRIPOS>BOND
     1     1     2 1   
     2     1    19 1   
     3     1    31 1   
     4     1    32 1   
     5     2     3 1   
     6     2     4 1   
     7     2    20 1   
     8     3    33 1   
     9     3    34 1   
    10     3    35 1   
    11     4    36 1   
    12     4    37 1   
    13     4    38 1   
    14     5    17 1   
    15     5    39 1   
    16     5    40 1   
    17     5    41 1   
    18     6    20 1   
    19     6    21 1   
    20     6    42 1   
    21     6    43 1   
    22     7    22 1   
    23     7    44 1   
    24     7    45 1   
    25     7    46 1   
    26     8    11 1   
    27     8    14 1   
    28     8    15 1   
    29     8    23 1   
    30     9    10 1   
    31     9    23 1   
    32     9    49 1   
    33     9    50 1   
    34    10    11 ar  
    35    10    13 ar  
    36    11    24 ar  
    37    12    24 ar  
    38    12    28 ar  
    39    12    51 1   
    40    13    28 ar  
    41    13    30 1   
    42    14    52 1   
    43    14    53 1   
    44    14    54 1   
    45    15    55 1   
    46    15    56 1   
    47    15    68 1   
    48    16    17 1   
    49    16    22 1   
    50    16    57 1   
    51    16    68 1   
    52    17    18 1   
    53    17    20 1   
    54    18    19 1   
    55    18    58 1   
    56    18    59 1   
    57    19    60 1   
    58    19    61 1   
    59    20    62 1   
    60    21    22 1   
    61    21    63 1   
    62    21    64 1   
    63    22    23 1   
    64    23    65 1   
    65    24    25 1   
    66    25    26 1   
    67    25    27 1   
    68    28    29 1   
    69    29    66 1   
    70    30    67 1   
    71    47    68 1   
    72    48    68 1   
@<TRIPOS>SUBSTRUCTURE
     1 L4B         1 TEMP              0 ****  ****    0 ROOT
