@<TRIPOS>MOLECULE
L4C
   31    30     1     0     0
SMALL
No Charge or Current Charge


@<TRIPOS>ATOM
      1 O17          1.8400    -0.1340     6.8930 o          1 L4C      -0.783000
      2 C9           1.7370    -0.4220     5.7100 c          1 L4C       0.723000
      3 O16          1.5570    -1.5630     5.3130 o          1 L4C      -0.783000
      4 C10          1.7800     0.7170     4.6750 c3         1 L4C      -0.190400
      5 C11          0.3540     1.2770     4.4170 c3         1 L4C      -0.103700
      6 C8           0.3180     2.4820     3.4570 ce         1 L4C       0.289300
      7 C12          0.2820     3.9030     4.0670 c          1 L4C       0.633700
      8 O19          0.2040     4.8820     3.3270 o          1 L4C      -0.739000
      9 O18          0.3390     4.0450     5.2850 o          1 L4C      -0.739000
     10 N1           0.2290     2.3610     2.1530 n2         1 L4C      -0.356700
     11 O13          0.5040     1.0760     1.6310 os         1 L4C      -0.315000
     12 C5           0.3020     1.0610     0.2030 c3         1 L4C       0.182600
     13 C3           0.6510    -0.3450    -0.3390 c3         1 L4C      -0.054300
     14 N2          -0.1360    -1.4300     0.3070 ns         1 L4C      -0.426900
     15 C6          -1.4840    -1.6500     0.1470 c          1 L4C       0.582100
     16 C7          -2.0450    -2.8000     0.9820 c3         1 L4C      -0.173100
     17 O15         -2.1810    -0.9860    -0.6090 o          1 L4C      -0.704100
     18 C4           2.1800    -0.6080    -0.2270 c          1 L4C       0.731000
     19 O14          2.5790    -1.4560     0.5620 o          1 L4C      -0.726000
     20 OXT          2.9160    -0.0500    -1.0310 o          1 L4C      -0.726000
     21 H101         2.3670     1.5580     5.0630 hc         1 L4C       0.039200
     22 H102         2.1370     0.3380     3.7100 hc         1 L4C       0.039200
     23 H111        -0.0850     1.5500     5.3840 hc         1 L4C       0.038700
     24 H112        -0.2870     0.4720     4.0390 hc         1 L4C       0.038700
     25 H5C1        -0.7430     1.2960    -0.0390 h1         1 L4C       0.019200
     26 H5C2         0.9390     1.8080    -0.2900 h1         1 L4C       0.019200
     27 H3           0.4080    -0.3600    -1.4090 h1         1 L4C       0.028700
     28 H2           0.3520    -2.0400     0.9540 hn         1 L4C       0.350500
     29 H7C1        -3.1190    -2.9550     0.8270 hc         1 L4C       0.035367
     30 H7C2        -1.4720    -3.7100     0.7700 hc         1 L4C       0.035367
     31 H7C3        -1.8120    -2.6230     2.0380 hc         1 L4C       0.035367
@<TRIPOS>BOND
     1     1     2 1   
     2     2     3 1   
     3     2     4 1   
     4     4     5 1   
     5     4    21 1   
     6     4    22 1   
     7     5     6 1   
     8     5    23 1   
     9     5    24 1   
    10     6     7 1   
    11     6    10 2   
    12     7     8 1   
    13     7     9 1   
    14    10    11 1   
    15    11    12 1   
    16    12    13 1   
    17    12    25 1   
    18    12    26 1   
    19    13    14 1   
    20    13    18 1   
    21    13    27 1   
    22    14    15 1   
    23    14    28 1   
    24    15    16 1   
    25    15    17 2   
    26    16    29 1   
    27    16    30 1   
    28    16    31 1   
    29    18    19 1   
    30    18    20 1   
@<TRIPOS>SUBSTRUCTURE
     1 L4C         1 TEMP              0 ****  ****    0 ROOT
