@<TRIPOS>MOLECULE
L4C
   31    30     1     0     0
SMALL
abcg2


@<TRIPOS>ATOM
      1 O17          2.9680    -0.6780     5.9660 o          1 L4C      -0.783000
      2 C9           1.8080    -0.3210     5.6700 c          1 L4C       0.723000
      3 O16          0.7510    -0.7940     6.1320 o          1 L4C      -0.783000
      4 C10          1.7010     0.8050     4.6260 c3         1 L4C      -0.190400
      5 C11          0.2860     1.3230     4.3740 c3         1 L4C      -0.103700
      6 C8           0.2840     2.4820     3.4250 ce         1 L4C       0.289300
      7 C12          0.3850     3.9120     3.9710 c          1 L4C       0.633700
      8 O19          0.3600     4.8420     3.1470 o          1 L4C      -0.739000
      9 O18          0.4980     4.0020     5.2080 o          1 L4C      -0.739000
     10 N1           0.2630     2.3850     2.1550 n2         1 L4C      -0.356700
     11 O13          0.2610     1.0910     1.7160 os         1 L4C      -0.315000
     12 C5           0.1280     1.0330     0.3090 c3         1 L4C       0.182600
     13 C3           0.6210    -0.3330    -0.1360 c3         1 L4C      -0.054300
     14 N2          -0.1560    -1.4100     0.4260 ns         1 L4C      -0.426900
     15 C6          -1.3610    -1.7890    -0.0080 c          1 L4C       0.582100
     16 C7          -1.9510    -2.9920     0.6880 c3         1 L4C      -0.173100
     17 O15         -1.9600    -1.2170    -0.9150 o          1 L4C      -0.704100
     18 C4           2.1160    -0.5100     0.2450 c          1 L4C       0.731000
     19 O14          2.4100    -1.4810     0.9660 o          1 L4C      -0.726000
     20 OXT          2.8860     0.3460    -0.2240 o          1 L4C      -0.726000
     21 H101         2.3450     1.6310     4.9420 hc         1 L4C       0.039200
     22 H102         2.1280     0.4360     3.6880 hc         1 L4C       0.039200
     23 H111        -0.1550     1.6460     5.3150 hc         1 L4C       0.038700
     24 H112        -0.3310     0.5110     3.9890 hc         1 L4C       0.038700
     25 H5C1        -0.9160     1.1850     0.0130 h1         1 L4C       0.019200
     26 H5C2         0.7300     1.8070    -0.1720 h1         1 L4C       0.019200
     27 H3           0.5430    -0.3600    -1.2280 h1         1 L4C       0.028700
     28 H2           0.3270    -1.9530     1.1270 hn         1 L4C       0.350500
     29 H7C1        -2.9410    -2.7450     1.0710 hc         1 L4C       0.035367
     30 H7C2        -2.0740    -3.8030    -0.0300 hc         1 L4C       0.035367
     31 H7C3        -1.3430    -3.3560     1.5140 hc         1 L4C       0.035367
@<TRIPOS>BOND
     1     1     2 1   
     2     2     3 1   
     3     2     4 1   
     4     4     5 1   
     5     4    21 1   
     6     4    22 1   
     7     5     6 1   
     8     5    23 1   
     9     5    24 1   
    10     6     7 1   
    11     6    10 2   
    12     7     8 1   
    13     7     9 1   
    14    10    11 1   
    15    11    12 1   
    16    12    13 1   
    17    12    25 1   
    18    12    26 1   
    19    13    14 1   
    20    13    18 1   
    21    13    27 1   
    22    14    15 1   
    23    14    28 1   
    24    15    16 1   
    25    15    17 2   
    26    16    29 1   
    27    16    30 1   
    28    16    31 1   
    29    18    19 1   
    30    18    20 1   
@<TRIPOS>SUBSTRUCTURE
     1 L4C         1 TEMP              0 ****  ****    0 ROOT
