@<TRIPOS>MOLECULE
L4E
   68    68     1     0     0
SMALL
bcc


@<TRIPOS>ATOM
      1 C4          11.7340    -5.3940   -16.9740 c2         1 L4E      -0.155200
      2 C5          12.0780    -5.1240   -18.2360 c2         1 L4E      -0.125400
      3 C6          13.1390    -4.1470   -18.6500 c3         1 L4E      -0.051400
      4 C7          11.3910    -5.8060   -19.3850 c3         1 L4E      -0.051400
      5 C8          15.0300    -6.2530   -15.7290 c3         1 L4E      -0.050900
      6 C10         14.3440    -9.2980   -15.8000 c3         1 L4E      -0.034200
      7 C13         17.2700    -9.4530   -14.4420 c3         1 L4E      -0.046900
      8 C15         16.5200    -8.4080   -11.5980 c3         1 L4E      -0.039200
      9 C17         16.7530   -10.5220   -10.2040 c2         1 L4E      -0.127400
     10 C20         15.9810   -12.9110    -9.7790 c3         1 L4E       0.021100
     11 C21         15.9400   -13.4900    -8.3810 ca         1 L4E      -0.113300
     12 C22         16.2440   -12.7240    -7.2580 ca         1 L4E      -0.097000
     13 C24         15.8900   -14.5970    -5.8150 ca         1 L4E      -0.147000
     14 C26         15.6170   -14.8330    -8.2020 ca         1 L4E       0.083100
     15 C3          12.2990    -4.8200   -15.7140 c3         1 L4E      -0.036200
     16 C2          12.7280    -5.9080   -14.7170 c3         1 L4E      -0.035200
     17 C1          13.7450    -6.8730   -15.2660 c2         1 L4E      -0.109400
     18 C9          13.4780    -8.1810   -15.3100 c2         1 L4E      -0.161200
     19 C11         14.8560   -10.1910   -14.6530 c3         1 L4E      -0.031200
     20 C12         15.9140    -9.5380   -13.8050 c2         1 L4E      -0.131400
     21 C14         15.6190    -9.0780   -12.5860 c2         1 L4E      -0.139200
     22 C16         16.4170    -9.0550   -10.2080 c3         1 L4E      -0.033200
     23 C18         18.1430   -10.8580   -10.6550 c3         1 L4E      -0.046900
     24 C19         15.8420   -11.4210    -9.8230 c2         1 L4E      -0.140200
     25 C23         16.2290   -13.2550    -5.9740 ca         1 L4E      -0.131600
     26 C29         16.5800   -12.3980    -4.7630 c          1 L4E       0.926200
     27 O31         16.8460   -11.2000    -4.9860 o          1 L4E      -0.826800
     28 O30         16.5750   -12.9670    -3.6530 o          1 L4E      -0.826800
     29 C25         15.5870   -15.3800    -6.9140 ca         1 L4E       0.005100
     30 O28         15.2530   -16.6940    -6.8400 oh         1 L4E      -0.546100
     31 O27         15.3410   -15.5930    -9.2870 oh         1 L4E      -0.522100
     32 H1          10.9450    -6.1280   -16.8200 ha         1 L4E       0.115000
     33 H2          13.6600    -3.6880   -17.8120 hc         1 L4E       0.035033
     34 H3          13.8850    -4.6360   -19.2810 hc         1 L4E       0.035033
     35 H4          12.7060    -3.3440   -19.2520 hc         1 L4E       0.035033
     36 H5          10.6300    -6.5090   -19.0480 hc         1 L4E       0.035033
     37 H6          10.9110    -5.0780   -20.0440 hc         1 L4E       0.035033
     38 H7          12.1100    -6.3530   -20.0010 hc         1 L4E       0.035033
     39 H8          15.4510    -5.6180   -14.9450 hc         1 L4E       0.036367
     40 H9          15.7870    -6.9850   -16.0020 hc         1 L4E       0.036367
     41 H10         14.8680    -5.6080   -16.5960 hc         1 L4E       0.036367
     42 H11         13.7530    -9.9260   -16.4730 hc         1 L4E       0.038700
     43 H12         15.1840    -8.9350   -16.3950 hc         1 L4E       0.038700
     44 H13         18.0200    -8.9840   -13.8080 hc         1 L4E       0.032367
     45 H14         17.6320   -10.4500   -14.7070 hc         1 L4E       0.032367
     46 H15         17.2340    -8.8830   -15.3740 hc         1 L4E       0.032367
     47 H16         17.5580    -8.4050   -11.9330 hc         1 L4E       0.038700
     48 H17         16.2340    -7.3560   -11.4960 hc         1 L4E       0.038700
     49 H18         15.1660   -13.3430   -10.3670 hc         1 L4E       0.044700
     50 H19         16.8980   -13.2380   -10.2770 hc         1 L4E       0.044700
     51 H20         16.4990   -11.6810    -7.3920 ha         1 L4E       0.155000
     52 H21         15.8670   -15.0310    -4.8220 ha         1 L4E       0.146000
     53 H22         13.1340    -4.1480   -15.9160 hc         1 L4E       0.042200
     54 H23         11.5360    -4.2050   -15.2230 hc         1 L4E       0.042200
     55 H24         13.1360    -5.4110   -13.8300 hc         1 L4E       0.044200
     56 H25         11.8430    -6.4590   -14.3860 hc         1 L4E       0.044200
     57 H26         12.5120    -8.5010   -14.9230 ha         1 L4E       0.110000
     58 H27         14.0060   -10.4910   -14.0340 hc         1 L4E       0.043200
     59 H28         15.2610   -11.1110   -15.0890 hc         1 L4E       0.043200
     60 H29         14.5950    -9.2090   -12.2410 ha         1 L4E       0.116000
     61 H30         17.0940    -8.5240    -9.5300 hc         1 L4E       0.046700
     62 H31         15.4050    -8.9080    -9.8210 hc         1 L4E       0.046700
     63 H32         18.8730   -10.2300   -10.1370 hc         1 L4E       0.033367
     64 H33         18.4170   -11.8960   -10.4790 hc         1 L4E       0.033367
     65 H34         18.2680   -10.6620   -11.7230 hc         1 L4E       0.033367
     66 H35         14.8710   -11.0470    -9.5080 ha         1 L4E       0.115000
     67 H37         15.2460   -16.9910    -5.9240 ho         1 L4E       0.424000
     68 H38         15.1030   -16.4870    -9.0140 ho         1 L4E       0.425000
@<TRIPOS>BOND
     1     1     2 2   
     2     1    15 1   
     3     1    32 1   
     4     2     3 1   
     5     2     4 1   
     6     3    33 1   
     7     3    34 1   
     8     3    35 1   
     9     4    36 1   
    10     4    37 1   
    11     4    38 1   
    12     5    17 1   
    13     5    39 1   
    14     5    40 1   
    15     5    41 1   
    16     6    18 1   
    17     6    19 1   
    18     6    42 1   
    19     6    43 1   
    20     7    20 1   
    21     7    44 1   
    22     7    45 1   
    23     7    46 1   
    24     8    21 1   
    25     8    22 1   
    26     8    47 1   
    27     8    48 1   
    28     9    22 1   
    29     9    23 1   
    30     9    24 2   
    31    10    11 1   
    32    10    24 1   
    33    10    49 1   
    34    10    50 1   
    35    11    12 ar  
    36    11    14 ar  
    37    12    25 ar  
    38    12    51 1   
    39    13    25 ar  
    40    13    29 ar  
    41    13    52 1   
    42    14    29 ar  
    43    14    31 1   
    44    15    16 1   
    45    15    53 1   
    46    15    54 1   
    47    16    17 1   
    48    16    55 1   
    49    16    56 1   
    50    17    18 2   
    51    18    57 1   
    52    19    20 1   
    53    19    58 1   
    54    19    59 1   
    55    20    21 2   
    56    21    60 1   
    57    22    61 1   
    58    22    62 1   
    59    23    63 1   
    60    23    64 1   
    61    23    65 1   
    62    24    66 1   
    63    25    26 1   
    64    26    27 1   
    65    26    28 1   
    66    29    30 1   
    67    30    67 1   
    68    31    68 1   
@<TRIPOS>SUBSTRUCTURE
     1 L4E         1 TEMP              0 ****  ****    0 ROOT
