@<TRIPOS>MOLECULE
L4E
   68    68     1     0     0
SMALL
No Charge or Current Charge


@<TRIPOS>ATOM
      1 C4          11.8650    -5.3910   -17.1690 c2         1 L4E      -0.205200
      2 C5          12.3170    -6.0860   -18.2320 c2         1 L4E      -0.125400
      3 C6          13.7760    -6.2470   -18.6350 c3         1 L4E      -0.051400
      4 C7          11.3820    -6.8280   -19.1690 c3         1 L4E      -0.051400
      5 C8          15.3390    -6.2410   -15.0300 c3         1 L4E      -0.050900
      6 C10         14.1340    -9.1400   -15.5300 c3         1 L4E      -0.034200
      7 C13         16.7090    -9.5630   -13.4670 c3         1 L4E      -0.046900
      8 C15         15.4790    -7.8120   -11.1150 c3         1 L4E      -0.039200
      9 C17         16.4170    -9.8780    -9.9220 c2         1 L4E      -0.127400
     10 C20         16.5520   -12.4200   -10.3660 c3         1 L4E       0.021100
     11 C21         16.4210   -13.3100    -9.1320 ca         1 L4E      -0.113300
     12 C22         17.4380   -13.2880    -8.1550 ca         1 L4E      -0.079000
     13 C24         16.2300   -14.9250    -6.8200 ca         1 L4E      -0.129000
     14 C26         15.3020   -14.1470    -8.9360 ca         1 L4E       0.083100
     15 C3          12.6700    -4.6030   -16.1470 c3         1 L4E      -0.036200
     16 C2          12.9490    -5.4120   -14.8600 c3         1 L4E      -0.035200
     17 C1          13.8620    -6.6100   -15.0840 c2         1 L4E      -0.109400
     18 C9          13.3700    -7.8490   -15.2840 c2         1 L4E      -0.211200
     19 C11         14.3290    -9.9690   -14.2410 c3         1 L4E      -0.031200
     20 C12         15.2310    -9.2920   -13.2180 c2         1 L4E      -0.131400
     21 C14         14.7270    -8.5570   -12.2060 c2         1 L4E      -0.189200
     22 C16         15.5700    -8.6180    -9.8000 c3         1 L4E      -0.033200
     23 C18         17.9040    -9.6080    -9.7200 c3         1 L4E      -0.046900
     24 C19         15.8630   -11.0810   -10.1750 c2         1 L4E      -0.190200
     25 C23         17.3600   -14.0910    -6.9920 ca         1 L4E      -0.131600
     26 C29         18.4700   -14.0550    -5.9490 c          1 L4E       0.715600
     27 O31         19.4430   -13.3430    -6.1530 o          1 L4E      -0.721500
     28 O30         18.3520   -14.7410    -4.9430 o          1 L4E      -0.721500
     29 C25         15.2090   -14.9520    -7.7840 ca         1 L4E       0.005100
     30 O28         14.1160   -15.7620    -7.6060 oh         1 L4E      -0.585100
     31 O27         14.2830   -14.2030    -9.8420 oh         1 L4E      -0.561100
     32 H1          10.7920    -5.3550   -16.9750 ha         1 L4E       0.165000
     33 H2          14.4670    -5.7310   -17.9630 hc         1 L4E       0.035033
     34 H3          14.0640    -7.3050   -18.6370 hc         1 L4E       0.035033
     35 H4          13.9490    -5.8540   -19.6440 hc         1 L4E       0.035033
     36 H5          10.3330    -6.7140   -18.8730 hc         1 L4E       0.035033
     37 H6          11.4760    -6.4560   -20.1970 hc         1 L4E       0.035033
     38 H7          11.6050    -7.9020   -19.1800 hc         1 L4E       0.035033
     39 H8          15.6020    -5.8330   -14.0460 hc         1 L4E       0.036367
     40 H9          16.0000    -7.0940   -15.2050 hc         1 L4E       0.036367
     41 H10         15.5890    -5.4820   -15.7790 hc         1 L4E       0.036367
     42 H11         13.5810    -9.7480   -16.2560 hc         1 L4E       0.038700
     43 H12         15.1070    -8.9510   -15.9950 hc         1 L4E       0.038700
     44 H13         17.3640    -9.0670   -12.7460 hc         1 L4E       0.032367
     45 H14         16.9240   -10.6370   -13.4040 hc         1 L4E       0.032367
     46 H15         17.0140    -9.2250   -14.4640 hc         1 L4E       0.032367
     47 H16         16.4850    -7.5250   -11.4390 hc         1 L4E       0.038700
     48 H17         14.9620    -6.8670   -10.9090 hc         1 L4E       0.038700
     49 H18         16.1240   -12.9210   -11.2430 hc         1 L4E       0.044700
     50 H19         17.6090   -12.2920   -10.6240 hc         1 L4E       0.044700
     51 H20         18.2970   -12.6360    -8.3030 ha         1 L4E       0.137000
     52 H21         16.1480   -15.5510    -5.9340 ha         1 L4E       0.128000
     53 H22         13.6170    -4.2450   -16.5660 hc         1 L4E       0.042200
     54 H23         12.1140    -3.6980   -15.8750 hc         1 L4E       0.042200
     55 H24         13.3730    -4.7460   -14.0980 hc         1 L4E       0.044200
     56 H25         11.9850    -5.7460   -14.4550 hc         1 L4E       0.044200
     57 H26         12.2880    -7.9910   -15.2980 ha         1 L4E       0.160000
     58 H27         13.3390   -10.1540   -13.8050 hc         1 L4E       0.043200
     59 H28         14.7230   -10.9590   -14.5030 hc         1 L4E       0.043200
     60 H29         13.6460    -8.4360   -12.1290 ha         1 L4E       0.166000
     61 H30         15.9570    -7.9710    -9.0030 hc         1 L4E       0.046700
     62 H31         14.5490    -8.8810    -9.4940 hc         1 L4E       0.046700
     63 H32         18.0870    -9.1560    -8.7380 hc         1 L4E       0.033367
     64 H33         18.5180   -10.5120    -9.7680 hc         1 L4E       0.033367
     65 H34         18.2880    -8.9150   -10.4770 hc         1 L4E       0.033367
     66 H35         14.7820   -11.1510   -10.2990 ha         1 L4E       0.165000
     67 H37         14.2140   -16.2490    -6.7570 ho         1 L4E       0.463000
     68 H38         13.6420   -14.8500    -9.4680 ho         1 L4E       0.464000
@<TRIPOS>BOND
     1     1     2 2   
     2     1    15 1   
     3     1    32 1   
     4     2     3 1   
     5     2     4 1   
     6     3    33 1   
     7     3    34 1   
     8     3    35 1   
     9     4    36 1   
    10     4    37 1   
    11     4    38 1   
    12     5    17 1   
    13     5    39 1   
    14     5    40 1   
    15     5    41 1   
    16     6    18 1   
    17     6    19 1   
    18     6    42 1   
    19     6    43 1   
    20     7    20 1   
    21     7    44 1   
    22     7    45 1   
    23     7    46 1   
    24     8    21 1   
    25     8    22 1   
    26     8    47 1   
    27     8    48 1   
    28     9    22 1   
    29     9    23 1   
    30     9    24 2   
    31    10    11 1   
    32    10    24 1   
    33    10    49 1   
    34    10    50 1   
    35    11    12 ar  
    36    11    14 ar  
    37    12    25 ar  
    38    12    51 1   
    39    13    25 ar  
    40    13    29 ar  
    41    13    52 1   
    42    14    29 ar  
    43    14    31 1   
    44    15    16 1   
    45    15    53 1   
    46    15    54 1   
    47    16    17 1   
    48    16    55 1   
    49    16    56 1   
    50    17    18 2   
    51    18    57 1   
    52    19    20 1   
    53    19    58 1   
    54    19    59 1   
    55    20    21 2   
    56    21    60 1   
    57    22    61 1   
    58    22    62 1   
    59    23    63 1   
    60    23    64 1   
    61    23    65 1   
    62    24    66 1   
    63    25    26 1   
    64    26    27 1   
    65    26    28 1   
    66    29    30 1   
    67    30    67 1   
    68    31    68 1   
@<TRIPOS>SUBSTRUCTURE
     1 L4E         1 TEMP              0 ****  ****    0 ROOT
