@<TRIPOS>MOLECULE
L4F
  104   108     1     0     0
SMALL
No Charge or Current Charge


@<TRIPOS>ATOM
      1 C10         -0.5690     4.5770    16.9430 c6         1 L4F       0.089500
      2 C15         -4.7200     1.4830    15.1240 c          1 L4F       0.579100
      3 C17         -6.9420     2.1610    16.1070 c3         1 L4F       0.106700
      4 C21         -9.8040     4.9340    16.6830 ca         1 L4F      -0.263500
      5 C22        -10.3810     4.2600    17.7810 ca         1 L4F      -0.020500
      6 C24         -9.2310     5.7650    19.3150 ca         1 L4F      -0.046000
      7 C26         -8.9430     6.0290    16.9100 ca         1 L4F      -0.020500
      8 C02          0.3710     5.4460    22.5050 c          1 L4F       0.617700
      9 C05          0.5870     2.6150    20.0830 c3         1 L4F       0.163800
     10 C07          0.0840     1.8640    17.7770 c6         1 L4F       0.132300
     11 C08          0.0300     2.2710    16.2800 c6         1 L4F       0.089500
     12 C09         -0.5080     4.1580    18.4400 c6         1 L4F       0.132300
     13 C12         -2.1020     3.3570    15.3390 c          1 L4F       0.646100
     14 C14         -3.6720     1.8750    14.0500 c3         1 L4F       0.042700
     15 C18         -8.3480     2.2160    15.4580 c3         1 L4F      -0.050400
     16 C19         -8.6160     3.4690    14.5650 c3         1 L4F      -0.289400
     17 C23        -10.0940     4.6780    19.0920 ca         1 L4F      -0.125000
     18 C25         -8.6560     6.4380    18.2240 ca         1 L4F      -0.125000
     19 C29         -6.7230     3.2880    17.1540 c3         1 L4F      -0.092400
     20 C30         -5.4280     3.1710    17.9910 c3         1 L4F      -0.033100
     21 C31         -5.2440     4.3610    18.9230 ca         1 L4F      -0.079300
     22 C32         -6.0580     4.5050    20.0640 ca         1 L4F      -0.112500
     23 C33         -5.9000     5.6170    20.9100 ca         1 L4F      -0.117500
     24 C34         -4.9250     6.5870    20.6220 ca         1 L4F      -0.107000
     25 C35         -4.1050     6.4440    19.4910 ca         1 L4F      -0.117500
     26 C36         -4.2670     5.3360    18.6430 ca         1 L4F      -0.112500
     27 C38         -3.5140     0.7740    12.9760 c3         1 L4F      -0.036100
     28 C39         -2.4510     1.1130    11.9360 ca         1 L4F      -0.078300
     29 C40         -1.2280     0.4130    11.9100 ca         1 L4F      -0.103500
     30 C41         -0.2470     0.7350    10.9560 ca         1 L4F      -0.105500
     31 C42         -0.4820     1.7570    10.0210 ca         1 L4F      -0.106000
     32 C43         -1.7000     2.4570    10.0410 ca         1 L4F      -0.105500
     33 C44         -2.6810     2.1360    10.9950 ca         1 L4F      -0.103500
     34 C46         -0.8250     6.0510    23.2000 ca         1 L4F      -0.186600
     35 C47         -0.6280     7.0370    24.1920 ca         1 L4F      -0.015000
     36 C48         -1.7220     7.5850    24.8820 ca         1 L4F      -0.194000
     37 C49         -3.0260     7.1650    24.5880 ca         1 L4F       0.357000
     38 C51         -5.1430     8.3270    24.9020 c2         1 L4F       0.843100
     39 C54         -3.2320     6.1870    23.6050 ca         1 L4F      -0.194000
     40 C55         -2.1440     5.6340    22.9060 ca         1 L4F      -0.015000
     41 N06          0.4390     3.0190    18.6560 n3         1 L4F      -0.720600
     42 N11         -0.9020     3.4160    16.0720 n          1 L4F      -0.396800
     43 N13         -2.3880     2.1640    14.7210 ns         1 L4F      -0.486900
     44 N16         -5.9010     2.1940    15.0740 ns         1 L4F      -0.487900
     45 N50         -4.0900     7.6840    25.3090 nu         1 L4F      -0.946200
     46 N52         -5.2130     8.8320    23.7700 n2         1 L4F      -0.900100
     47 N53         -5.4860     8.9050    26.0150 nv         1 L4F      -1.104200
     48 O01          1.5210     5.7820    22.7580 o          1 L4F      -0.493000
     49 O03          0.0570     4.4370    21.6310 os         1 L4F      -0.457100
     50 O27        -10.1510     5.5600    14.1170 o          1 L4F      -0.520500
     51 O28        -11.2310     3.4160    15.0020 o          1 L4F      -0.520500
     52 O45         -2.8640     4.3070    15.2650 o          1 L4F      -0.657100
     53 S20        -10.1220     4.3810    14.9930 sy         1 L4F       1.032500
     54 H1           0.4090     4.9780    16.6420 h1         1 L4F       0.067200
     55 H2          -1.3020     5.3860    16.8240 h1         1 L4F       0.067200
     56 H3          -6.8770     1.2010    16.6380 h1         1 L4F       0.084700
     57 H4         -11.0450     3.4110    17.6260 ha         1 L4F       0.133500
     58 H5          -9.0060     6.0820    20.3300 ha         1 L4F       0.123000
     59 H6          -8.4840     6.5550    16.0750 ha         1 L4F       0.133500
     60 H7           1.7320     3.2030    21.8230 h1         1 L4F       0.059700
     61 H8           1.8280     4.3630    20.4820 h1         1 L4F       0.059700
     62 H9          -0.3720     2.2570    20.4810 h1         1 L4F       0.045700
     63 H10          1.2800     1.7650    20.1330 h1         1 L4F       0.045700
     64 H11         -0.8950     1.4530    18.0670 h1         1 L4F       0.045700
     65 H12          0.8210     1.0550    17.8930 h1         1 L4F       0.045700
     66 H13         -0.2410     1.3960    15.6770 h1         1 L4F       0.067200
     67 H14          1.0370     2.5760    15.9600 h1         1 L4F       0.067200
     68 H15         -0.2050     5.0350    19.0290 h1         1 L4F       0.045700
     69 H16         -1.5200     3.8790    18.7710 h1         1 L4F       0.045700
     70 H17         -4.0190     2.7910    13.5550 h1         1 L4F       0.083700
     71 H18         -9.0970     2.1390    16.2560 hc         1 L4F       0.063200
     72 H19         -8.4850     1.3170    14.8440 hc         1 L4F       0.063200
     73 H20         -7.7970     4.1920    14.6370 h1         1 L4F       0.095700
     74 H21         -8.7190     3.1670    13.5170 h1         1 L4F       0.095700
     75 H22        -10.5360     4.1560    19.9360 ha         1 L4F       0.121000
     76 H23         -7.9830     7.2740    18.3980 ha         1 L4F       0.121000
     77 H24         -6.7160     4.2590    16.6460 hc         1 L4F       0.047700
     78 H25         -7.5760     3.2990    17.8420 hc         1 L4F       0.047700
     79 H26         -5.4530     2.2390    18.5690 hc         1 L4F       0.059700
     80 H27         -4.5620     3.0940    17.3240 hc         1 L4F       0.059700
     81 H28         -6.8180     3.7610    20.2900 ha         1 L4F       0.114500
     82 H29         -6.5340     5.7270    21.7870 ha         1 L4F       0.111500
     83 H30         -4.8030     7.4470    21.2760 ha         1 L4F       0.123000
     84 H31         -3.3500     7.1940    19.2690 ha         1 L4F       0.111500
     85 H32         -3.6360     5.2400    17.7630 ha         1 L4F       0.114500
     86 H33         -4.4810     0.6220    12.4800 hc         1 L4F       0.062700
     87 H34         -3.2760    -0.1760    13.4690 hc         1 L4F       0.062700
     88 H35         -1.0340    -0.3790    12.6290 ha         1 L4F       0.107000
     89 H36          0.6960     0.1910    10.9410 ha         1 L4F       0.113500
     90 H37          0.2770     2.0060     9.2830 ha         1 L4F       0.114000
     91 H38         -1.8840     3.2490     9.3180 ha         1 L4F       0.113500
     92 H39         -3.6200     2.6850    11.0040 ha         1 L4F       0.107000
     93 H40          0.3770     7.3740    24.4420 ha         1 L4F       0.133000
     94 H41         -1.5510     8.3350    25.6490 ha         1 L4F       0.125500
     95 H42         -4.2400     5.8470    23.3880 ha         1 L4F       0.125500
     96 H43         -2.3340     4.8750    22.1490 ha         1 L4F       0.133000
     97 H45         -1.7150     1.4180    14.8210 hn         1 L4F       0.315500
     98 H46         -5.9870     2.8820    14.3370 hn         1 L4F       0.314500
     99 H47         -3.8140     8.1580    26.1540 hn         1 L4F       0.517000
    100 H48         -5.9280     9.5650    23.7950 hn         1 L4F       0.388400
    101 H49         -6.0950     9.6960    25.8600 hn         1 L4F       0.479500
    102 H50         -5.8920     8.2330    26.6540 hn         1 L4F       0.479500
    103 O37         -4.5150     0.6220    15.9730 o          1 L4F      -0.615100
    104 C04          1.1500     3.7010    21.0370 c3         1 L4F       0.166600
@<TRIPOS>BOND
     1     1    12 1   
     2     1    42 1   
     3     1    54 1   
     4     1    55 1   
     5     2    14 1   
     6     2    44 1   
     7     2   103 2   
     8     3    15 1   
     9     3    19 1   
    10     3    44 1   
    11     3    56 1   
    12     4     5 ar  
    13     4     7 ar  
    14     4    53 1   
    15     5    17 ar  
    16     5    57 1   
    17     6    17 ar  
    18     6    18 ar  
    19     6    58 1   
    20     7    18 ar  
    21     7    59 1   
    22     8    34 1   
    23     8    48 2   
    24     8    49 1   
    25     9    41 1   
    26     9    62 1   
    27     9    63 1   
    28     9   104 1   
    29    10    11 1   
    30    10    41 1   
    31    10    64 1   
    32    10    65 1   
    33    11    42 1   
    34    11    66 1   
    35    11    67 1   
    36    12    41 1   
    37    12    68 1   
    38    12    69 1   
    39    13    42 1   
    40    13    43 1   
    41    13    52 2   
    42    14    27 1   
    43    14    43 1   
    44    14    70 1   
    45    15    16 1   
    46    15    71 1   
    47    15    72 1   
    48    16    53 1   
    49    16    73 1   
    50    16    74 1   
    51    17    75 1   
    52    18    76 1   
    53    19    20 1   
    54    19    77 1   
    55    19    78 1   
    56    20    21 1   
    57    20    79 1   
    58    20    80 1   
    59    21    22 ar  
    60    21    26 ar  
    61    22    23 ar  
    62    22    81 1   
    63    23    24 ar  
    64    23    82 1   
    65    24    25 ar  
    66    24    83 1   
    67    25    26 ar  
    68    25    84 1   
    69    26    85 1   
    70    27    28 1   
    71    27    86 1   
    72    27    87 1   
    73    28    29 ar  
    74    28    33 ar  
    75    29    30 ar  
    76    29    88 1   
    77    30    31 ar  
    78    30    89 1   
    79    31    32 ar  
    80    31    90 1   
    81    32    33 ar  
    82    32    91 1   
    83    33    92 1   
    84    34    35 ar  
    85    34    40 ar  
    86    35    36 ar  
    87    35    93 1   
    88    36    37 ar  
    89    36    94 1   
    90    37    39 ar  
    91    37    45 1   
    92    38    45 1   
    93    38    46 2   
    94    38    47 1   
    95    39    40 ar  
    96    39    95 1   
    97    40    96 1   
    98    43    97 1   
    99    44    98 1   
   100    45    99 1   
   101    46   100 1   
   102    47   101 1   
   103    47   102 1   
   104    49   104 1   
   105    50    53 2   
   106    51    53 2   
   107    60   104 1   
   108    61   104 1   
@<TRIPOS>SUBSTRUCTURE
     1 L4F         1 TEMP              0 ****  ****    0 ROOT
