@<TRIPOS>MOLECULE
L4F
  104   108     1     0     0
SMALL
abcg2


@<TRIPOS>ATOM
      1 C10         -0.2620     4.6400    17.0900 c6         1 L4F       0.089500
      2 C15         -4.3730     1.8030    15.8180 c          1 L4F       0.579100
      3 C17         -6.5130     2.4540    16.8870 c3         1 L4F       0.106700
      4 C21         -9.5660     5.1050    16.6750 ca         1 L4F      -0.263500
      5 C22         -9.8250     5.0870    18.0380 ca         1 L4F      -0.020500
      6 C24         -8.7970     7.2540    18.2180 ca         1 L4F      -0.046000
      7 C26         -8.9440     6.1890    16.0680 ca         1 L4F      -0.020500
      8 C02          0.3630     4.9170    22.3990 c          1 L4F       0.617700
      9 C05          0.8150     2.3320    19.8720 c3         1 L4F       0.163800
     10 C07          0.4550     1.9380    17.5540 c6         1 L4F       0.132300
     11 C08          0.4440     2.5570    16.1670 c6         1 L4F       0.089500
     12 C09         -0.2470     4.0340    18.4860 c6         1 L4F       0.132300
     13 C12         -1.8210     3.4660    15.6490 c          1 L4F       0.646100
     14 C14         -3.4820     2.0540    14.5980 c3         1 L4F       0.042700
     15 C18         -7.8920     2.0260    16.3760 c3         1 L4F      -0.050400
     16 C19         -8.5000     2.8820    15.2600 c3         1 L4F      -0.289400
     17 C23         -9.4370     6.1730    18.8080 ca         1 L4F      -0.125000
     18 C25         -8.5510     7.2630    16.8510 ca         1 L4F      -0.125000
     19 C29         -6.5320     3.7830    17.6390 c3         1 L4F      -0.092400
     20 C30         -5.2660     4.0320    18.4590 c3         1 L4F      -0.033100
     21 C31         -5.3390     5.3340    19.2110 ca         1 L4F      -0.079300
     22 C32         -6.2720     5.5110    20.2320 ca         1 L4F      -0.112500
     23 C33         -6.3860     6.7250    20.8920 ca         1 L4F      -0.117500
     24 C34         -5.5530     7.7850    20.5550 ca         1 L4F      -0.107000
     25 C35         -4.6120     7.6180    19.5490 ca         1 L4F      -0.117500
     26 C36         -4.5100     6.4030    18.8830 ca         1 L4F      -0.112500
     27 C38         -3.5370     0.8350    13.6710 c3         1 L4F      -0.036100
     28 C39         -2.7240     1.0370    12.4220 ca         1 L4F      -0.078300
     29 C40         -1.5150     0.3730    12.2370 ca         1 L4F      -0.103500
     30 C41         -0.7570     0.5800    11.0910 ca         1 L4F      -0.105500
     31 C42         -1.1990     1.4590    10.1130 ca         1 L4F      -0.106000
     32 C43         -2.4050     2.1270    10.2870 ca         1 L4F      -0.105500
     33 C44         -3.1600     1.9150    11.4310 ca         1 L4F      -0.103500
     34 C46         -0.8980     5.5530    22.8310 ca         1 L4F      -0.186600
     35 C47         -0.8520     6.5340    23.8220 ca         1 L4F      -0.015000
     36 C48         -2.0060     7.1370    24.2760 ca         1 L4F      -0.194000
     37 C49         -3.2530     6.7870    23.7430 ca         1 L4F       0.357000
     38 C51         -5.6990     7.0390    24.2250 c2         1 L4F       0.843100
     39 C54         -3.2970     5.8310    22.7200 ca         1 L4F      -0.194000
     40 C55         -2.1370     5.2200    22.2850 ca         1 L4F      -0.015000
     41 N06          0.7200     2.9510    18.5630 n3         1 L4F      -0.720600
     42 N11         -0.5400     3.6190    16.0970 n          1 L4F      -0.396800
     43 N13         -2.1210     2.2990    15.0050 ns         1 L4F      -0.486900
     44 N16         -5.5320     2.4790    15.8180 ns         1 L4F      -0.487900
     45 N50         -4.3720     7.4390    24.2210 nu         1 L4F      -0.946200
     46 N52         -6.5880     7.9590    24.2780 n2         1 L4F      -0.900100
     47 N53         -5.9240     5.6970    24.2640 nv         1 L4F      -1.104200
     48 O01          1.4580     5.2290    22.8060 o          1 L4F      -0.493000
     49 O03          0.1600     3.9530    21.5120 os         1 L4F      -0.457100
     50 O27        -10.5720     4.2490    14.4130 o          1 L4F      -0.520500
     51 O28        -10.8790     2.8370    16.4730 o          1 L4F      -0.520500
     52 O45         -2.6600     4.3550    15.7580 o          1 L4F      -0.657100
     53 S20        -10.0390     3.7230    15.6680 sy         1 L4F       1.032500
     54 H1           0.7160     5.0760    16.8700 h1         1 L4F       0.067200
     55 H2          -0.9990     5.4360    17.0330 h1         1 L4F       0.067200
     56 H3          -6.1960     1.6740    17.5830 h1         1 L4F       0.084700
     57 H4         -10.3110     4.2380    18.4990 ha         1 L4F       0.133500
     58 H5          -8.4840     8.0910    18.8270 ha         1 L4F       0.123000
     59 H6          -8.7550     6.1990    15.0020 ha         1 L4F       0.133500
     60 H7           1.7460     2.6590    21.7750 h1         1 L4F       0.059700
     61 H8           2.0380     3.9490    20.6010 h1         1 L4F       0.059700
     62 H9          -0.1290     1.8510    20.1800 h1         1 L4F       0.045700
     63 H10          1.5520     1.5280    19.7940 h1         1 L4F       0.045700
     64 H11         -0.5080     1.4270    17.7270 h1         1 L4F       0.045700
     65 H12          1.2370     1.1770    17.6020 h1         1 L4F       0.045700
     66 H13          0.2830     1.8010    15.4010 h1         1 L4F       0.067200
     67 H14          1.4240     2.9940    15.9550 h1         1 L4F       0.067200
     68 H15          0.0190     4.8220    19.1900 h1         1 L4F       0.045700
     69 H16         -1.2660     3.6950    18.7440 h1         1 L4F       0.045700
     70 H17         -3.8420     2.9230    14.0440 h1         1 L4F       0.083700
     71 H18         -8.5650     1.9700    17.2340 hc         1 L4F       0.063200
     72 H19         -7.8100     1.0040    16.0030 hc         1 L4F       0.063200
     73 H20         -7.8380     3.6610    14.8780 h1         1 L4F       0.095700
     74 H21         -8.7830     2.2670    14.4030 h1         1 L4F       0.095700
     75 H22         -9.6260     6.1690    19.8730 ha         1 L4F       0.121000
     76 H23         -8.0570     8.1080    16.3920 ha         1 L4F       0.121000
     77 H24         -6.6830     4.6080    16.9350 hc         1 L4F       0.047700
     78 H25         -7.3980     3.7860    18.3040 hc         1 L4F       0.047700
     79 H26         -5.1310     3.2060    19.1640 hc         1 L4F       0.059700
     80 H27         -4.3910     4.0370    17.8070 hc         1 L4F       0.059700
     81 H28         -6.9290     4.6930    20.5050 ha         1 L4F       0.114500
     82 H29         -7.1250     6.8470    21.6740 ha         1 L4F       0.111500
     83 H30         -5.6370     8.7290    21.0780 ha         1 L4F       0.123000
     84 H31         -3.9540     8.4350    19.2800 ha         1 L4F       0.111500
     85 H32         -3.7780     6.2830    18.0910 ha         1 L4F       0.114500
     86 H33         -4.5830     0.6520    13.4140 hc         1 L4F       0.062700
     87 H34         -3.1850    -0.0490    14.2090 hc         1 L4F       0.062700
     88 H35         -1.1630    -0.3150    12.9970 ha         1 L4F       0.107000
     89 H36          0.1810     0.0530    10.9640 ha         1 L4F       0.113500
     90 H37         -0.6100     1.6210     9.2190 ha         1 L4F       0.114000
     91 H38         -2.7600     2.8120     9.5270 ha         1 L4F       0.113500
     92 H39         -4.1020     2.4370    11.5550 ha         1 L4F       0.107000
     93 H40          0.0970     6.8200    24.2570 ha         1 L4F       0.133000
     94 H41         -1.9500     7.8820    25.0600 ha         1 L4F       0.125500
     95 H42         -4.2290     5.5900    22.2270 ha         1 L4F       0.125500
     96 H43         -2.2130     4.4890    21.4910 ha         1 L4F       0.133000
     97 H45         -1.5690     1.4770    15.1860 hn         1 L4F       0.315500
     98 H46         -5.6430     3.1940    15.1140 hn         1 L4F       0.314500
     99 H47         -4.2290     8.3640    24.5960 hn         1 L4F       0.517000
    100 H48         -7.5120     7.5570    24.3930 hn         1 L4F       0.388400
    101 H49         -6.8170     5.3600    23.9490 hn         1 L4F       0.479500
    102 H50         -5.1680     5.0400    24.1770 hn         1 L4F       0.479500
    103 O37         -4.0310     1.0120    16.6840 o          1 L4F      -0.615100
    104 C04          1.2880     3.2510    20.9790 c3         1 L4F       0.166600
@<TRIPOS>BOND
     1     1    12 1   
     2     1    42 1   
     3     1    54 1   
     4     1    55 1   
     5     2    14 1   
     6     2    44 1   
     7     2   103 2   
     8     3    15 1   
     9     3    19 1   
    10     3    44 1   
    11     3    56 1   
    12     4     5 ar  
    13     4     7 ar  
    14     4    53 1   
    15     5    17 ar  
    16     5    57 1   
    17     6    17 ar  
    18     6    18 ar  
    19     6    58 1   
    20     7    18 ar  
    21     7    59 1   
    22     8    34 1   
    23     8    48 2   
    24     8    49 1   
    25     9    41 1   
    26     9    62 1   
    27     9    63 1   
    28     9   104 1   
    29    10    11 1   
    30    10    41 1   
    31    10    64 1   
    32    10    65 1   
    33    11    42 1   
    34    11    66 1   
    35    11    67 1   
    36    12    41 1   
    37    12    68 1   
    38    12    69 1   
    39    13    42 1   
    40    13    43 1   
    41    13    52 2   
    42    14    27 1   
    43    14    43 1   
    44    14    70 1   
    45    15    16 1   
    46    15    71 1   
    47    15    72 1   
    48    16    53 1   
    49    16    73 1   
    50    16    74 1   
    51    17    75 1   
    52    18    76 1   
    53    19    20 1   
    54    19    77 1   
    55    19    78 1   
    56    20    21 1   
    57    20    79 1   
    58    20    80 1   
    59    21    22 ar  
    60    21    26 ar  
    61    22    23 ar  
    62    22    81 1   
    63    23    24 ar  
    64    23    82 1   
    65    24    25 ar  
    66    24    83 1   
    67    25    26 ar  
    68    25    84 1   
    69    26    85 1   
    70    27    28 1   
    71    27    86 1   
    72    27    87 1   
    73    28    29 ar  
    74    28    33 ar  
    75    29    30 ar  
    76    29    88 1   
    77    30    31 ar  
    78    30    89 1   
    79    31    32 ar  
    80    31    90 1   
    81    32    33 ar  
    82    32    91 1   
    83    33    92 1   
    84    34    35 ar  
    85    34    40 ar  
    86    35    36 ar  
    87    35    93 1   
    88    36    37 ar  
    89    36    94 1   
    90    37    39 ar  
    91    37    45 1   
    92    38    45 1   
    93    38    46 2   
    94    38    47 1   
    95    39    40 ar  
    96    39    95 1   
    97    40    96 1   
    98    43    97 1   
    99    44    98 1   
   100    45    99 1   
   101    46   100 1   
   102    47   101 1   
   103    47   102 1   
   104    49   104 1   
   105    50    53 2   
   106    51    53 2   
   107    60   104 1   
   108    61   104 1   
@<TRIPOS>SUBSTRUCTURE
     1 L4F         1 TEMP              0 ****  ****    0 ROOT
