@<TRIPOS>MOLECULE
L4G
   68    72     1     0     0
SMALL
abcg2


@<TRIPOS>ATOM
      1 C5           2.6750    -0.8330     0.2970 cp         1 L4G       0.026000
      2 C6           3.1250    -3.0630     1.3440 ca         1 L4G      -0.074000
      3 C7           1.9580    -5.0600     0.6520 ca         1 L4G       0.018000
      4 C8           0.2350    -4.9430    -1.0680 ca         1 L4G      -0.035000
      5 C10          2.5960    -0.0240     1.4290 ca         1 L4G      -0.112000
      6 C13          1.7210    -6.4460     0.7590 ca         1 L4G      -0.160000
      7 C15         -0.4060    -0.1640    -1.6640 ca         1 L4G      -0.107500
      8 C17          2.8290     1.3380     1.3460 ca         1 L4G      -0.019000
      9 C20         -1.2900     0.8200    -1.2660 ca         1 L4G      -0.148000
     10 C21         -1.6270    -0.3150     0.8220 ca         1 L4G      -0.148000
     11 C22          3.1460     1.8920     0.1150 ca         1 L4G      -0.265500
     12 C24         -1.9080     0.7600    -0.0150 ca         1 L4G       0.130100
     13 C1           1.4650    -2.9020    -0.3760 ca         1 L4G       0.155100
     14 C2           2.4110    -2.2810     0.4060 cp         1 L4G      -0.097000
     15 C3           1.2110    -4.2910    -0.2790 ca         1 L4G      -0.085000
     16 C9          -0.1320    -1.2340    -0.8210 ca         1 L4G       0.077100
     17 C11          3.0090    -0.2540    -0.9270 ca         1 L4G      -0.112000
     18 C12          2.9150    -4.4060     1.4640 ca         1 L4G      -0.117000
     19 C14          0.0190    -6.2860    -0.9450 ca         1 L4G      -0.196000
     20 C16         -0.7440    -1.3100     0.4160 ca         1 L4G      -0.107500
     21 C18          3.2410     1.1060    -1.0250 ca         1 L4G      -0.019000
     22 C19          0.7700    -7.0530    -0.0240 ca         1 L4G       0.152100
     23 O23          0.5740    -8.3770     0.1090 oh         1 L4G      -0.531100
     24 S25          3.4290     3.6370    -0.0100 sy         1 L4G       1.058500
     25 C27          5.1890     3.8050     0.1840 c3         1 L4G      -0.337100
     26 O28          2.7800     4.2920     1.1250 o          1 L4G      -0.524500
     27 O29          3.0720     4.0640    -1.3610 o          1 L4G      -0.524500
     28 C30         -3.4320     1.7370     1.5260 c3         1 L4G       0.165600
     29 C31         -4.3480     2.9390     1.6030 c3         1 L4G       0.169800
     30 N32         -5.3390     3.0030     0.5490 n3         1 L4G      -0.706600
     31 C33         -5.9710     4.3110     0.5160 c6         1 L4G       0.168300
     32 C34         -6.3290     1.9440     0.6480 c6         1 L4G       0.168300
     33 C35         -6.9360     4.4380    -0.6540 c6         1 L4G      -0.075400
     34 C36         -7.3020     1.9790    -0.5200 c6         1 L4G      -0.075400
     35 C37         -7.9850     3.3360    -0.6150 c6         1 L4G      -0.075400
     36 H6           3.8690    -2.5780     1.9640 ha         1 L4G       0.118000
     37 H8          -0.3470    -4.3790    -1.7840 ha         1 L4G       0.133000
     38 H10          2.3240    -0.4570     2.3830 ha         1 L4G       0.126000
     39 H13          2.2920    -7.0310     1.4700 ha         1 L4G       0.132000
     40 H15          0.0740    -0.0990    -2.6320 ha         1 L4G       0.126000
     41 H17          2.7480     1.9540     2.2320 ha         1 L4G       0.136000
     42 H20         -1.5000     1.6520    -1.9260 ha         1 L4G       0.126000
     43 H21         -2.0810    -0.4060     1.7990 ha         1 L4G       0.126000
     44 H11          3.0920    -0.8690    -1.8130 ha         1 L4G       0.126000
     45 H12          3.4830    -4.9850     2.1810 ha         1 L4G       0.122000
     46 H14         -0.7340    -6.7680    -1.5590 ha         1 L4G       0.116000
     47 H16         -0.5500    -2.1360     1.0880 ha         1 L4G       0.126000
     48 H18          3.4920     1.5390    -1.9840 ha         1 L4G       0.136000
     49 H23         -0.1210    -8.6780    -0.4860 ho         1 L4G       0.468000
     50 H271         5.4810     3.4240     1.1590 h1         1 L4G       0.101700
     51 H272         5.6950     3.2540    -0.6060 h1         1 L4G       0.101700
     52 H273         5.4260     4.8660     0.1100 h1         1 L4G       0.101700
     53 H301        -3.9920     0.8010     1.6310 h1         1 L4G       0.032200
     54 H302        -2.7280     1.7850     2.3650 h1         1 L4G       0.032200
     55 H311        -4.8060     2.9310     2.6080 h1         1 L4G       0.041700
     56 H312        -3.7360     3.8440     1.5530 h1         1 L4G       0.041700
     57 H331        -6.5130     4.5210     1.4570 h1         1 L4G       0.027450
     58 H332        -5.1910     5.0720     0.4320 h1         1 L4G       0.027450
     59 H341        -5.8250     0.9760     0.6610 h1         1 L4G       0.027450
     60 H342        -6.8960     2.0150     1.5950 h1         1 L4G       0.027450
     61 H351        -7.4040     5.4240    -0.6290 hc         1 L4G       0.047200
     62 H352        -6.3720     4.3770    -1.5900 hc         1 L4G       0.047200
     63 H361        -8.0360     1.1800    -0.3980 hc         1 L4G       0.047200
     64 H362        -6.7580     1.7740    -1.4470 hc         1 L4G       0.047200
     65 H371        -8.6320     3.4770     0.2580 hc         1 L4G       0.038200
     66 H372        -8.6310     3.3850    -1.4950 hc         1 L4G       0.038200
     67 O4           0.7330    -2.1950    -1.2870 os         1 L4G      -0.260200
     68 O26         -2.7480     1.7700     0.2890 os         1 L4G      -0.322100
@<TRIPOS>BOND
     1     1     5 ar  
     2     1    14 1   
     3     1    17 ar  
     4     2    14 ar  
     5     2    18 ar  
     6     2    36 1   
     7     3     6 ar  
     8     3    15 ar  
     9     3    18 ar  
    10     4    15 ar  
    11     4    19 ar  
    12     4    37 1   
    13     5     8 ar  
    14     5    38 1   
    15     6    22 ar  
    16     6    39 1   
    17     7     9 ar  
    18     7    16 ar  
    19     7    40 1   
    20     8    11 ar  
    21     8    41 1   
    22     9    12 ar  
    23     9    42 1   
    24    10    12 ar  
    25    10    20 ar  
    26    10    43 1   
    27    11    21 ar  
    28    11    24 1   
    29    12    68 1   
    30    13    14 ar  
    31    13    15 ar  
    32    13    67 1   
    33    16    20 ar  
    34    16    67 1   
    35    17    21 ar  
    36    17    44 1   
    37    18    45 1   
    38    19    22 ar  
    39    19    46 1   
    40    20    47 1   
    41    21    48 1   
    42    22    23 1   
    43    23    49 1   
    44    24    25 1   
    45    24    26 2   
    46    24    27 2   
    47    25    50 1   
    48    25    51 1   
    49    25    52 1   
    50    28    29 1   
    51    28    53 1   
    52    28    54 1   
    53    28    68 1   
    54    29    30 1   
    55    29    55 1   
    56    29    56 1   
    57    30    31 1   
    58    30    32 1   
    59    31    33 1   
    60    31    57 1   
    61    31    58 1   
    62    32    34 1   
    63    32    59 1   
    64    32    60 1   
    65    33    35 1   
    66    33    61 1   
    67    33    62 1   
    68    34    35 1   
    69    34    63 1   
    70    34    64 1   
    71    35    65 1   
    72    35    66 1   
@<TRIPOS>SUBSTRUCTURE
     1 L4G         1 TEMP              0 ****  ****    0 ROOT
