@<TRIPOS>MOLECULE
L4G
   68    72     1     0     0
SMALL
No Charge or Current Charge


@<TRIPOS>ATOM
      1 C5           2.6440    -0.9120     0.3430 cp         1 L4G       0.026000
      2 C6           3.1710    -3.1420     1.3770 ca         1 L4G      -0.074000
      3 C7           2.1000    -5.2070     0.6510 ca         1 L4G       0.018000
      4 C8           0.4180    -5.1740    -1.1150 ca         1 L4G      -0.035000
      5 C10          2.5950    -0.1050     1.5040 ca         1 L4G      -0.112000
      6 C13          1.9460    -6.6010     0.7630 ca         1 L4G      -0.160000
      7 C15         -0.4770    -0.3700    -1.8110 ca         1 L4G      -0.107500
      8 C17          2.7760     1.2870     1.4310 ca         1 L4G      -0.019000
      9 C20         -1.3480     0.6670    -1.4340 ca         1 L4G      -0.148000
     10 C21         -1.5690    -0.3180     0.7820 ca         1 L4G      -0.148000
     11 C22          3.0140     1.9020     0.1850 ca         1 L4G      -0.265500
     12 C24         -1.8950     0.7020    -0.1400 ca         1 L4G       0.130100
     13 C1           1.4990    -3.0840    -0.3900 ca         1 L4G       0.155100
     14 C2           2.4310    -2.3890     0.4350 cp         1 L4G      -0.097000
     15 C3           1.3370    -4.4850    -0.2930 ca         1 L4G      -0.085000
     16 C9          -0.1430    -1.3780    -0.8920 ca         1 L4G       0.077100
     17 C11          2.8990    -0.2800    -0.8970 ca         1 L4G      -0.112000
     18 C12          3.0100    -4.5330     1.4830 ca         1 L4G      -0.117000
     19 C14          0.2710    -6.5680    -0.9970 ca         1 L4G      -0.196000
     20 C16         -0.6970    -1.3560     0.4040 ca         1 L4G      -0.107500
     21 C18          3.0810     1.1110    -0.9810 ca         1 L4G      -0.019000
     22 C19          1.0350    -7.2780    -0.0590 ca         1 L4G       0.152100
     23 O23          0.8940    -8.6280     0.0570 oh         1 L4G      -0.531100
     24 S25          3.2510     3.6890     0.0840 sy         1 L4G       1.058500
     25 C27          5.0210     3.8750     0.2960 c3         1 L4G      -0.337100
     26 O28          2.6210     4.3190     1.2510 o          1 L4G      -0.524500
     27 O29          2.9440     4.1340    -1.2820 o          1 L4G      -0.524500
     28 C30         -3.3520     1.8760     1.4730 c3         1 L4G       0.165600
     29 C31         -4.2400     3.1510     1.4920 c3         1 L4G       0.169800
     30 N32         -5.3540     3.2080     0.4980 n3         1 L4G      -0.706600
     31 C33         -6.0160     4.5420     0.4860 c6         1 L4G       0.168300
     32 C34         -6.3520     2.1100     0.6600 c6         1 L4G       0.168300
     33 C35         -7.0810     4.6460    -0.6330 c6         1 L4G      -0.075400
     34 C36         -7.4300     2.1460    -0.4520 c6         1 L4G      -0.075400
     35 C37         -8.1320     3.5210    -0.5040 c6         1 L4G      -0.075400
     36 H6           3.8890    -2.6420     2.0230 ha         1 L4G       0.118000
     37 H8          -0.1830    -4.6380    -1.8460 ha         1 L4G       0.133000
     38 H10          2.4000    -0.5640     2.4700 ha         1 L4G       0.126000
     39 H13          2.5310    -7.1610     1.4880 ha         1 L4G       0.132000
     40 H15         -0.0510    -0.3870    -2.8110 ha         1 L4G       0.126000
     41 H17          2.7260     1.8800     2.3430 ha         1 L4G       0.136000
     42 H20         -1.6000     1.4500    -2.1450 ha         1 L4G       0.126000
     43 H21         -1.9780    -0.3220     1.7880 ha         1 L4G       0.126000
     44 H11          2.9540    -0.8780    -1.8030 ha         1 L4G       0.126000
     45 H12          3.5970    -5.0860     2.2120 ha         1 L4G       0.122000
     46 H14         -0.4390    -7.0860    -1.6370 ha         1 L4G       0.116000
     47 H16         -0.4550    -2.1360     1.1220 ha         1 L4G       0.126000
     48 H18          3.2720     1.5660    -1.9510 ha         1 L4G       0.136000
     49 H23          0.2200    -8.9260    -0.5900 ho         1 L4G       0.468000
     50 H271         5.2930     3.4590     1.2710 h1         1 L4G       0.101700
     51 H272         5.5210     3.3290    -0.5110 h1         1 L4G       0.101700
     52 H273         5.2600     4.9420     0.2480 h1         1 L4G       0.101700
     53 H301        -3.9610     0.9940     1.7080 h1         1 L4G       0.032200
     54 H302        -2.5820     1.9730     2.2480 h1         1 L4G       0.032200
     55 H311        -4.6510     3.2570     2.5050 h1         1 L4G       0.041700
     56 H312        -3.5730     4.0100     1.3370 h1         1 L4G       0.041700
     57 H331        -6.4970     4.7350     1.4570 h1         1 L4G       0.027450
     58 H332        -5.2700     5.3350     0.3330 h1         1 L4G       0.027450
     59 H341        -5.8590     1.1280     0.6210 h1         1 L4G       0.027450
     60 H342        -6.8440     2.1870     1.6410 h1         1 L4G       0.027450
     61 H351        -7.5730     5.6270    -0.5890 hc         1 L4G       0.047200
     62 H352        -6.5890     4.5860    -1.6130 hc         1 L4G       0.047200
     63 H361        -8.1690     1.3520    -0.2780 hc         1 L4G       0.047200
     64 H362        -6.9610     1.9310    -1.4220 hc         1 L4G       0.047200
     65 H371        -8.7260     3.6700     0.4080 hc         1 L4G       0.038200
     66 H372        -8.8330     3.5580    -1.3490 hc         1 L4G       0.038200
     67 O4           0.7310    -2.3680    -1.2860 os         1 L4G      -0.260200
     68 O26         -2.7400     1.7460     0.1740 os         1 L4G      -0.322100
@<TRIPOS>BOND
     1     1     5 ar  
     2     1    14 1   
     3     1    17 ar  
     4     2    14 ar  
     5     2    18 ar  
     6     2    36 1   
     7     3     6 ar  
     8     3    15 ar  
     9     3    18 ar  
    10     4    15 ar  
    11     4    19 ar  
    12     4    37 1   
    13     5     8 ar  
    14     5    38 1   
    15     6    22 ar  
    16     6    39 1   
    17     7     9 ar  
    18     7    16 ar  
    19     7    40 1   
    20     8    11 ar  
    21     8    41 1   
    22     9    12 ar  
    23     9    42 1   
    24    10    12 ar  
    25    10    20 ar  
    26    10    43 1   
    27    11    21 ar  
    28    11    24 1   
    29    12    68 1   
    30    13    14 ar  
    31    13    15 ar  
    32    13    67 1   
    33    16    20 ar  
    34    16    67 1   
    35    17    21 ar  
    36    17    44 1   
    37    18    45 1   
    38    19    22 ar  
    39    19    46 1   
    40    20    47 1   
    41    21    48 1   
    42    22    23 1   
    43    23    49 1   
    44    24    25 1   
    45    24    26 2   
    46    24    27 2   
    47    25    50 1   
    48    25    51 1   
    49    25    52 1   
    50    28    29 1   
    51    28    53 1   
    52    28    54 1   
    53    28    68 1   
    54    29    30 1   
    55    29    55 1   
    56    29    56 1   
    57    30    31 1   
    58    30    32 1   
    59    31    33 1   
    60    31    57 1   
    61    31    58 1   
    62    32    34 1   
    63    32    59 1   
    64    32    60 1   
    65    33    35 1   
    66    33    61 1   
    67    33    62 1   
    68    34    35 1   
    69    34    63 1   
    70    34    64 1   
    71    35    65 1   
    72    35    66 1   
@<TRIPOS>SUBSTRUCTURE
     1 L4G         1 TEMP              0 ****  ****    0 ROOT
