@<TRIPOS>MOLECULE
L4H
   55    55     1     0     0
SMALL
No Charge or Current Charge


@<TRIPOS>ATOM
      1 C6          17.4710   -12.8720    -8.6760 ca         1 L4H      -0.079000
      2 C7          16.3470   -12.9290    -9.5250 ca         1 L4H      -0.113300
      3 C8          16.3530   -12.1290   -10.8270 c3         1 L4H       0.022100
      4 C10         16.3270    -9.5600   -10.5530 c2         1 L4H      -0.128400
      5 C13         14.4110    -8.3500   -12.7170 c2         1 L4H      -0.193200
      6 C15         13.7470    -9.8900   -14.5830 c3         1 L4H      -0.032200
      7 C17         12.7230    -7.8200   -15.6670 c2         1 L4H      -0.204200
      8 C20         12.4320    -5.3440   -15.3780 c3         1 L4H      -0.050900
      9 C21         16.2090    -9.5040   -14.1180 c3         1 L4H      -0.047900
     10 C22         17.8320    -9.3210   -10.5410 c3         1 L4H      -0.046900
     11 C18         13.2670    -6.5870   -15.6230 c2         1 L4H      -0.124400
     12 C19         14.7440    -6.2590   -15.7860 c3         1 L4H      -0.050900
     13 C16         13.4230    -9.1500   -15.9000 c3         1 L4H      -0.036200
     14 C14         14.7760    -9.1700   -13.7220 c2         1 L4H      -0.127400
     15 C12         15.3020    -7.5540   -11.7760 c3         1 L4H      -0.038200
     16 C11         15.5280    -8.2700   -10.4250 c3         1 L4H      -0.033200
     17 C9          15.7210   -10.7600   -10.6540 c2         1 L4H      -0.191200
     18 C2          17.5100   -13.5910    -7.4570 ca         1 L4H      -0.130600
     19 C3          18.7340   -13.5180    -6.5530 c          1 L4H       0.715600
     20 O4          18.7180   -14.1300    -5.4940 o          1 L4H      -0.721500
     21 O5          19.6940   -12.8530    -6.9180 o          1 L4H      -0.721500
     22 C1          16.3880   -14.3760    -7.0980 ca         1 L4H      -0.129000
     23 C25         15.2620   -14.4370    -7.9340 ca         1 L4H       0.006100
     24 O26         14.1790   -15.1980    -7.5750 oh         1 L4H      -0.585100
     25 C23         15.2390   -13.7150    -9.1430 ca         1 L4H       0.083100
     26 O24         14.1200   -13.8010    -9.9210 oh         1 L4H      -0.561100
     27 H1          18.3210   -12.2590    -8.9670 ha         1 L4H       0.136000
     28 H2          15.8160   -12.6760   -11.6110 hc         1 L4H       0.044700
     29 H3          17.3760   -12.0510   -11.2110 hc         1 L4H       0.044700
     30 H4          13.3490    -8.1900   -12.5250 ha         1 L4H       0.165000
     31 H5          12.8100   -10.0110   -14.0240 hc         1 L4H       0.043700
     32 H6          14.0850   -10.9080   -14.8120 hc         1 L4H       0.043700
     33 H7          11.6470    -7.9310   -15.5270 ha         1 L4H       0.164000
     34 H8          11.3680    -5.5840   -15.2560 hc         1 L4H       0.034700
     35 H9          12.7560    -4.8230   -14.4690 hc         1 L4H       0.034700
     36 H10         12.5150    -4.6410   -16.2160 hc         1 L4H       0.034700
     37 H11         16.9550    -8.9780   -13.5150 hc         1 L4H       0.033700
     38 H12         16.4050   -10.5760   -14.0000 hc         1 L4H       0.033700
     39 H13         16.4040    -9.2460   -15.1650 hc         1 L4H       0.033700
     40 H14         18.1380    -8.8090    -9.6210 hc         1 L4H       0.032700
     41 H15         18.4170   -10.2450   -10.5940 hc         1 L4H       0.032700
     42 H16         18.1420    -8.6940   -11.3850 hc         1 L4H       0.032700
     43 H17         15.3650    -7.1440   -15.9480 hc         1 L4H       0.034700
     44 H18         14.9050    -5.5890   -16.6390 hc         1 L4H       0.034700
     45 H19         15.1320    -5.7570   -14.8910 hc         1 L4H       0.034700
     46 H20         12.7750    -9.7920   -16.5090 hc         1 L4H       0.039700
     47 H21         14.3410    -9.0270   -16.4850 hc         1 L4H       0.039700
     48 H22         16.2690    -7.3210   -12.2340 hc         1 L4H       0.038700
     49 H23         14.8330    -6.5810   -11.5810 hc         1 L4H       0.038700
     50 H24         16.0200    -7.5810    -9.7270 hc         1 L4H       0.046700
     51 H25         14.5440    -8.4800    -9.9860 hc         1 L4H       0.046700
     52 H26         14.6310   -10.8060   -10.6480 ha         1 L4H       0.166000
     53 H28         16.3960   -14.9370    -6.1660 ha         1 L4H       0.128000
     54 H29         14.3640   -15.6290    -6.7100 ho         1 L4H       0.463000
     55 H30         13.5130   -14.4010    -9.4310 ho         1 L4H       0.464000
@<TRIPOS>BOND
     1     1     2 ar  
     2     1    18 ar  
     3     1    27 1   
     4     2     3 1   
     5     2    25 ar  
     6     3    17 1   
     7     3    28 1   
     8     3    29 1   
     9     4    10 1   
    10     4    16 1   
    11     4    17 2   
    12     5    14 2   
    13     5    15 1   
    14     5    30 1   
    15     6    13 1   
    16     6    14 1   
    17     6    31 1   
    18     6    32 1   
    19     7    11 2   
    20     7    13 1   
    21     7    33 1   
    22     8    11 1   
    23     8    34 1   
    24     8    35 1   
    25     8    36 1   
    26     9    14 1   
    27     9    37 1   
    28     9    38 1   
    29     9    39 1   
    30    10    40 1   
    31    10    41 1   
    32    10    42 1   
    33    11    12 1   
    34    12    43 1   
    35    12    44 1   
    36    12    45 1   
    37    13    46 1   
    38    13    47 1   
    39    15    16 1   
    40    15    48 1   
    41    15    49 1   
    42    16    50 1   
    43    16    51 1   
    44    17    52 1   
    45    18    19 1   
    46    18    22 ar  
    47    19    20 1   
    48    19    21 1   
    49    22    23 ar  
    50    22    53 1   
    51    23    24 1   
    52    23    25 ar  
    53    24    54 1   
    54    25    26 1   
    55    26    55 1   
@<TRIPOS>SUBSTRUCTURE
     1 L4H         1 TEMP              0 ****  ****    0 ROOT
