@<TRIPOS>MOLECULE
L4H
   55    55     1     0     0
SMALL
abcg2


@<TRIPOS>ATOM
      1 C6          16.4450   -12.5690    -7.8400 ca         1 L4H      -0.079000
      2 C7          16.0270   -13.2610    -8.9730 ca         1 L4H      -0.113300
      3 C8          15.8300   -12.5690   -10.3040 c3         1 L4H       0.022100
      4 C10         16.4330   -10.1190   -10.6610 c2         1 L4H      -0.128400
      5 C13         14.8880    -8.4890   -12.6630 c2         1 L4H      -0.193200
      6 C15         13.8640    -9.4450   -14.6930 c3         1 L4H      -0.032200
      7 C17         12.8380    -7.2810   -15.4620 c2         1 L4H      -0.204200
      8 C20         12.5990    -4.8280   -15.3140 c3         1 L4H      -0.050900
      9 C21         16.2420    -8.5720   -14.7770 c3         1 L4H      -0.047900
     10 C22         17.7110   -10.3520   -11.4100 c3         1 L4H      -0.046900
     11 C18         13.2320    -6.0720   -15.8710 c2         1 L4H      -0.124400
     12 C19         14.3020    -5.8090   -16.8890 c3         1 L4H      -0.050900
     13 C16         13.3490    -8.6220   -15.8850 c3         1 L4H      -0.036200
     14 C14         15.0100    -8.8070   -13.9550 c2         1 L4H      -0.127400
     15 C12         15.9080    -7.8790   -11.7550 c3         1 L4H      -0.038200
     16 C11         16.0660    -8.6750   -10.4510 c3         1 L4H      -0.033200
     17 C9          15.6440   -11.0880   -10.1910 c2         1 L4H      -0.191200
     18 C2          16.6470   -13.2010    -6.6190 ca         1 L4H      -0.130600
     19 C3          17.1080   -12.4220    -5.3940 c          1 L4H       0.715600
     20 O4          17.3190   -13.0840    -4.3580 o          1 L4H      -0.721500
     21 O5          17.2380   -11.1890    -5.5290 o          1 L4H      -0.721500
     22 C1          16.4160   -14.5720    -6.5370 ca         1 L4H      -0.129000
     23 C25         15.9990   -15.2840    -7.6480 ca         1 L4H       0.006100
     24 O26         15.7530   -16.6190    -7.6460 oh         1 L4H      -0.585100
     25 C23         15.8080   -14.6330    -8.8720 ca         1 L4H       0.083100
     26 O24         15.4190   -15.3180    -9.9720 oh         1 L4H      -0.561100
     27 H1          16.6190   -11.5040    -7.9160 ha         1 L4H       0.136000
     28 H2          14.9440   -12.9850   -10.7950 hc         1 L4H       0.044700
     29 H3          16.6650   -12.8130   -10.9660 hc         1 L4H       0.044700
     30 H4          13.9340    -8.7050   -12.1870 ha         1 L4H       0.165000
     31 H5          13.0360    -9.6260   -14.0010 hc         1 L4H       0.043700
     32 H6          14.1780   -10.4250   -15.0680 hc         1 L4H       0.043700
     33 H7          12.0510    -7.3180   -14.7110 ha         1 L4H       0.164000
     34 H8          11.8200    -5.0530   -14.5850 hc         1 L4H       0.034700
     35 H9          13.3450    -4.1950   -14.8260 hc         1 L4H       0.034700
     36 H10         12.1550    -4.2240   -16.1090 hc         1 L4H       0.034700
     37 H11         17.0990    -8.2480   -14.1890 hc         1 L4H       0.033700
     38 H12         16.5280    -9.4800   -15.3140 hc         1 L4H       0.033700
     39 H13         16.0640    -7.8060   -15.5360 hc         1 L4H       0.033700
     40 H14         18.5170    -9.7450   -10.9910 hc         1 L4H       0.032700
     41 H15         18.0360   -11.3900   -11.3950 hc         1 L4H       0.032700
     42 H16         17.6120   -10.0560   -12.4570 hc         1 L4H       0.032700
     43 H17         14.7550    -6.7120   -17.2940 hc         1 L4H       0.034700
     44 H18         13.8990    -5.2350   -17.7280 hc         1 L4H       0.034700
     45 H19         15.1000    -5.2000   -16.4570 hc         1 L4H       0.034700
     46 H20         12.5350    -9.1880   -16.3490 hc         1 L4H       0.039700
     47 H21         14.1250    -8.5370   -16.6460 hc         1 L4H       0.039700
     48 H22         16.8750    -7.7760   -12.2490 hc         1 L4H       0.038700
     49 H23         15.6010    -6.8620   -11.4880 hc         1 L4H       0.038700
     50 H24         16.8410    -8.1890    -9.8460 hc         1 L4H       0.046700
     51 H25         15.1390    -8.6130    -9.8750 hc         1 L4H       0.046700
     52 H26         14.7460   -10.7860    -9.6570 ha         1 L4H       0.166000
     53 H28         16.5650   -15.0870    -5.5940 ha         1 L4H       0.128000
     54 H29         15.9010   -16.9920    -6.7700 ho         1 L4H       0.463000
     55 H30         15.2680   -16.2450    -9.7500 ho         1 L4H       0.464000
@<TRIPOS>BOND
     1     1     2 ar  
     2     1    18 ar  
     3     1    27 1   
     4     2     3 1   
     5     2    25 ar  
     6     3    17 1   
     7     3    28 1   
     8     3    29 1   
     9     4    10 1   
    10     4    16 1   
    11     4    17 2   
    12     5    14 2   
    13     5    15 1   
    14     5    30 1   
    15     6    13 1   
    16     6    14 1   
    17     6    31 1   
    18     6    32 1   
    19     7    11 2   
    20     7    13 1   
    21     7    33 1   
    22     8    11 1   
    23     8    34 1   
    24     8    35 1   
    25     8    36 1   
    26     9    14 1   
    27     9    37 1   
    28     9    38 1   
    29     9    39 1   
    30    10    40 1   
    31    10    41 1   
    32    10    42 1   
    33    11    12 1   
    34    12    43 1   
    35    12    44 1   
    36    12    45 1   
    37    13    46 1   
    38    13    47 1   
    39    15    16 1   
    40    15    48 1   
    41    15    49 1   
    42    16    50 1   
    43    16    51 1   
    44    17    52 1   
    45    18    19 1   
    46    18    22 ar  
    47    19    20 1   
    48    19    21 1   
    49    22    23 ar  
    50    22    53 1   
    51    23    24 1   
    52    23    25 ar  
    53    24    54 1   
    54    25    26 1   
    55    26    55 1   
@<TRIPOS>SUBSTRUCTURE
     1 L4H         1 TEMP              0 ****  ****    0 ROOT
