@<TRIPOS>MOLECULE
L4I
   20    20     1     0     0
SMALL
abcg2


@<TRIPOS>ATOM
      1 C10          4.6890     5.2260    16.9620 c          1 L4I       0.713600
      2 C01          3.0580     2.0170    18.2550 ca         1 L4I      -0.130000
      3 C02          3.2660     3.2060    17.5730 ca         1 L4I      -0.089500
      4 C03          4.4570     3.9170    17.7120 ca         1 L4I      -0.125600
      5 C04          5.4310     3.3940    18.5590 ca         1 L4I      -0.089500
      6 C05          5.2290     2.1990    19.2340 ca         1 L4I      -0.130000
      7 C06          4.0400     1.4910    19.0920 ca         1 L4I      -0.125300
      8 C07          3.8250     0.1800    19.7950 c3         1 L4I      -0.023100
      9 C08          3.8980    -1.0170    18.8660 c3         1 L4I       0.140600
     10 O11          5.7600     5.8180    17.1990 o          1 L4I      -0.721000
     11 O12          3.7900     5.5870    16.1780 o          1 L4I      -0.721000
     12 CL09         5.5310    -1.1730    18.1200 cl         1 L4I      -0.299000
     13 H041         6.3630     3.9290    18.6880 ha         1 L4I       0.126000
     14 H051         6.0060     1.8100    19.8830 ha         1 L4I       0.082500
     15 H071         2.8310     0.1560    20.2510 hc         1 L4I       0.040700
     16 H072         4.5460     0.0570    20.6050 hc         1 L4I       0.040700
     17 H082         3.1860    -0.9340    18.0480 h1         1 L4I       0.051700
     18 H081         3.7090    -1.9440    19.4040 h1         1 L4I       0.051700
     19 H011         2.1190     1.4880    18.1350 ha         1 L4I       0.082500
     20 H021         2.4880     3.5920    16.9270 ha         1 L4I       0.126000
@<TRIPOS>BOND
     1     1     4 1   
     2     1    10 1   
     3     1    11 1   
     4     2     3 ar  
     5     2     7 ar  
     6     2    19 1   
     7     3     4 ar  
     8     3    20 1   
     9     4     5 ar  
    10     5     6 ar  
    11     5    13 1   
    12     6     7 ar  
    13     6    14 1   
    14     7     8 1   
    15     8     9 1   
    16     8    15 1   
    17     8    16 1   
    18     9    12 1   
    19     9    17 1   
    20     9    18 1   
@<TRIPOS>SUBSTRUCTURE
     1 L4I         1 TEMP              0 ****  ****    0 ROOT
