@<TRIPOS>MOLECULE
L4I
   20    20     1     0     0
SMALL
No Charge or Current Charge


@<TRIPOS>ATOM
      1 C10          4.6760     5.2620    16.9720 c          1 L4I       0.713600
      2 C01          3.0660     1.9930    18.2150 ca         1 L4I      -0.130000
      3 C02          3.2640     3.2090    17.5370 ca         1 L4I      -0.089500
      4 C03          4.4600     3.9460    17.7050 ca         1 L4I      -0.125600
      5 C04          5.4500     3.4270    18.5720 ca         1 L4I      -0.089500
      6 C05          5.2490     2.2110    19.2490 ca         1 L4I      -0.130000
      7 C06          4.0570     1.4850    19.0730 ca         1 L4I      -0.125300
      8 C07          3.8370     0.1650    19.8060 c3         1 L4I      -0.023100
      9 C08          3.8740    -1.0620    18.8720 c3         1 L4I       0.140600
     10 O11          5.7250     5.8660    17.1480 o          1 L4I      -0.721000
     11 O12          3.7930     5.6720    16.2310 o          1 L4I      -0.721000
     12 Cl09         5.5130    -1.2890    18.1120 cl         1 L4I      -0.299000
     13 H041         6.3820     3.9660    18.7260 ha         1 L4I       0.126000
     14 H051         6.0270     1.8330    19.9080 ha         1 L4I       0.082500
     15 H071         2.8630     0.1870    20.3100 hc         1 L4I       0.040700
     16 H072         4.5840     0.0300    20.5980 hc         1 L4I       0.040700
     17 H082         3.1400    -0.9540    18.0640 h1         1 L4I       0.051700
     18 H081         3.6470    -1.9740    19.4390 h1         1 L4I       0.051700
     19 H011         2.1380     1.4460    18.0700 ha         1 L4I       0.082500
     20 H021         2.4800     3.5780    16.8790 ha         1 L4I       0.126000
@<TRIPOS>BOND
     1     1     4 1   
     2     1    10 1   
     3     1    11 1   
     4     2     3 ar  
     5     2     7 ar  
     6     2    19 1   
     7     3     4 ar  
     8     3    20 1   
     9     4     5 ar  
    10     5     6 ar  
    11     5    13 1   
    12     6     7 ar  
    13     6    14 1   
    14     7     8 1   
    15     8     9 1   
    16     8    15 1   
    17     8    16 1   
    18     9    12 1   
    19     9    17 1   
    20     9    18 1   
@<TRIPOS>SUBSTRUCTURE
     1 L4I         1 TEMP              0 ****  ****    0 ROOT
