@<TRIPOS>MOLECULE
L4J
   95    97     1     0     0
SMALL
No Charge or Current Charge


@<TRIPOS>ATOM
      1 C10         12.5230   -19.5800    61.9280 ca         1 L4J      -0.080300
      2 C11         13.6310   -20.4360    62.0740 ca         1 L4J      -0.108000
      3 C12         14.6710   -20.1020    62.9580 ca         1 L4J      -0.103000
      4 C13         14.6080   -18.9140    63.7060 ca         1 L4J      -0.098000
      5 C14         13.5080   -18.0480    63.5640 ca         1 L4J      -0.076300
      6 C02         11.0530   -18.5090    66.8340 c          1 L4J       0.608700
      7 C03         10.0260   -19.5530    66.4570 ca         1 L4J      -0.127600
      8 C04         10.0660   -20.2250    65.2110 ca         1 L4J      -0.101000
      9 C05          9.0990   -21.2020    64.8800 ca         1 L4J      -0.058300
     10 C06          9.1110   -21.9930    63.5630 c3         1 L4J      -0.029100
     11 C07         10.2610   -21.6970    62.5680 c3         1 L4J      -0.078400
     12 C08         10.0980   -20.3670    61.7870 c3         1 L4J      -0.074400
     13 C09         11.3660   -19.9510    61.0050 c3         1 L4J      -0.031100
     14 C15         13.4140   -16.7720    64.3970 c3         1 L4J      -0.051100
     15 C16         12.8840   -17.0100    65.8360 c3         1 L4J       0.114700
     16 C17         12.5560   -15.6510    66.5270 c3         1 L4J       0.166800
     17 N18         12.6060   -15.7510    67.9990 n7         1 L4J      -0.858400
     18 C19         12.0510   -14.5860    68.7490 c3         1 L4J       0.119500
     19 C20         12.7970   -13.2280    68.4680 c          1 L4J       0.585100
     20 N21         12.0970   -12.3410    67.6700 ns         1 L4J      -0.516900
     21 C22         12.5690   -11.0100    67.2710 c3         1 L4J       0.108000
     22 C23         11.8530    -9.8620    68.0250 c3         1 L4J      -0.080700
     23 C24         12.2960    -8.4860    67.4820 c3         1 L4J      -0.087100
     24 C25         12.0400    -9.9410    69.5590 c3         1 L4J      -0.087100
     25 O26         13.9080   -12.9600    68.9150 o          1 L4J      -0.573100
     26 C27         12.0080   -14.9400    70.2570 c3         1 L4J      -0.076400
     27 C28         11.3240   -13.8670    71.1360 c3         1 L4J      -0.077400
     28 C29         11.2060   -14.2850    72.6180 c3         1 L4J      -0.074400
     29 C30         10.5340   -13.2100    73.4940 c3         1 L4J      -0.089100
     30 N31         11.7450   -17.9490    65.7800 ns         1 L4J      -0.494900
     31 C32         12.4740   -18.3830    62.6680 ca         1 L4J      -0.118000
     32 C33          8.0880   -21.4960    65.8130 ca         1 L4J      -0.111000
     33 C34          8.0350   -20.8470    67.0560 ca         1 L4J       0.293000
     34 N35          7.0270   -21.1790    67.9750 nh         1 L4J      -0.826300
     35 C36          7.3820   -21.7510    69.2920 c3         1 L4J       0.234800
     36 C37          8.5000   -22.8210    69.2630 c3         1 L4J      -0.095400
     37 C38          8.1240   -24.1030    68.4890 c3         1 L4J      -0.087100
     38 S39          5.5800   -20.2410    67.9200 s6         1 L4J       1.261100
     39 O40          4.6270   -20.8550    68.8510 o          1 L4J      -0.542000
     40 C41          4.9650   -20.4600    66.2610 c3         1 L4J      -0.373100
     41 O42          5.9810   -18.8420    68.0930 o          1 L4J      -0.542000
     42 C43          9.0100   -19.8890    67.3760 ca         1 L4J      -0.075000
     43 H1          13.6820   -21.3650    61.5120 ha         1 L4J       0.112000
     44 H2          15.5220   -20.7690    63.0710 ha         1 L4J       0.116000
     45 H3          15.4110   -18.6690    64.3970 ha         1 L4J       0.120000
     46 H4          10.8710   -20.0090    64.5170 ha         1 L4J       0.127000
     47 H5           8.1540   -21.8540    63.0430 hc         1 L4J       0.050700
     48 H6           9.1580   -23.0620    63.8090 hc         1 L4J       0.050700
     49 H7          10.3040   -22.5130    61.8360 hc         1 L4J       0.046700
     50 H8          11.2180   -21.7260    63.1010 hc         1 L4J       0.046700
     51 H9           9.8140   -19.5570    62.4680 hc         1 L4J       0.041200
     52 H10          9.2660   -20.4760    61.0800 hc         1 L4J       0.041200
     53 H11         11.6550   -20.7630    60.3260 hc         1 L4J       0.048700
     54 H12         11.1200   -19.0940    60.3660 hc         1 L4J       0.048700
     55 H13         14.3950   -16.2860    64.4540 hc         1 L4J       0.051200
     56 H14         12.7540   -16.0550    63.8910 hc         1 L4J       0.051200
     57 H15         13.6910   -17.4950    66.4020 h1         1 L4J       0.104700
     58 H16         13.2810   -14.8950    66.1950 h1         1 L4J       0.027700
     59 H17         11.5630   -15.3210    66.1920 h1         1 L4J       0.027700
     60 H18         12.0500   -16.5860    68.2510 hn         1 L4J       0.428000
     61 H20         11.0090   -14.4450    68.4320 h1         1 L4J       0.008700
     62 H21         11.1880   -12.6450    67.3440 hn         1 L4J       0.306500
     63 H22         13.6520   -10.9360    67.4320 h1         1 L4J       0.052200
     64 H23         12.3900   -10.8990    66.1930 h1         1 L4J       0.052200
     65 H24         10.7780    -9.9570    67.8230 hc         1 L4J       0.043700
     66 H25         11.7410    -7.6770    67.9730 hc         1 L4J       0.036367
     67 H26         13.3660    -8.3230    67.6570 hc         1 L4J       0.036367
     68 H27         12.1090    -8.4160    66.4030 hc         1 L4J       0.036367
     69 H28         11.5510    -9.0940    70.0540 hc         1 L4J       0.036367
     70 H29         11.5960   -10.8590    69.9600 hc         1 L4J       0.036367
     71 H30         13.1050    -9.9270    69.8240 hc         1 L4J       0.036367
     72 H31         11.4720   -15.8890    70.3810 hc         1 L4J       0.058700
     73 H32         13.0300   -15.1050    70.6190 hc         1 L4J       0.058700
     74 H33         11.8940   -12.9330    71.0800 hc         1 L4J       0.038200
     75 H34         10.3220   -13.6590    70.7400 hc         1 L4J       0.038200
     76 H35         10.6300   -15.2150    72.6900 hc         1 L4J       0.040700
     77 H36         12.2060   -14.4950    73.0170 hc         1 L4J       0.040700
     78 H37         10.4730   -13.5490    74.5350 hc         1 L4J       0.032033
     79 H38         11.1070   -12.2750    73.4700 hc         1 L4J       0.032033
     80 H39          9.5160   -13.0020    73.1410 hc         1 L4J       0.032033
     81 H40         11.4740   -18.2750    64.8620 hn         1 L4J       0.307500
     82 H41         11.6190   -17.7190    62.5560 ha         1 L4J       0.105000
     83 H42          7.3420   -22.2490    65.5780 ha         1 L4J       0.107000
     84 H43          7.6960   -20.9410    69.9650 h1         1 L4J       0.059700
     85 H44          6.5020   -22.2210    69.7510 h1         1 L4J       0.059700
     86 H45          8.7360   -23.0970    70.2980 hc         1 L4J       0.056200
     87 H46          9.4170   -22.3930    68.8420 hc         1 L4J       0.056200
     88 H47          8.9420   -24.8320    68.5400 hc         1 L4J       0.032700
     89 H48          7.2260   -24.5640    68.9160 hc         1 L4J       0.032700
     90 H49          7.9300   -23.8830    67.4330 hc         1 L4J       0.032700
     91 H50          4.8350   -21.5350    66.1010 h1         1 L4J       0.100700
     92 H51          4.0110   -19.9280    66.1940 h1         1 L4J       0.100700
     93 H52          5.7030   -20.0370    65.5730 h1         1 L4J       0.100700
     94 H53          8.9630   -19.3920    68.3410 ha         1 L4J       0.140000
     95 O01         11.2680   -18.2060    67.9980 o          1 L4J      -0.579100
@<TRIPOS>BOND
     1     1     2 ar  
     2     1    13 1   
     3     1    31 ar  
     4     2     3 ar  
     5     2    43 1   
     6     3     4 ar  
     7     3    44 1   
     8     4     5 ar  
     9     4    45 1   
    10     5    14 1   
    11     5    31 ar  
    12     6     7 1   
    13     6    30 1   
    14     6    95 2   
    15     7     8 ar  
    16     7    42 ar  
    17     8     9 ar  
    18     8    46 1   
    19     9    10 1   
    20     9    32 ar  
    21    10    11 1   
    22    10    47 1   
    23    10    48 1   
    24    11    12 1   
    25    11    49 1   
    26    11    50 1   
    27    12    13 1   
    28    12    51 1   
    29    12    52 1   
    30    13    53 1   
    31    13    54 1   
    32    14    15 1   
    33    14    55 1   
    34    14    56 1   
    35    15    16 1   
    36    15    30 1   
    37    15    57 1   
    38    16    17 1   
    39    16    58 1   
    40    16    59 1   
    41    17    18 1   
    42    17    60 1   
    43    18    19 1   
    44    18    26 1   
    45    18    61 1   
    46    19    20 1   
    47    19    25 2   
    48    20    21 1   
    49    20    62 1   
    50    21    22 1   
    51    21    63 1   
    52    21    64 1   
    53    22    23 1   
    54    22    24 1   
    55    22    65 1   
    56    23    66 1   
    57    23    67 1   
    58    23    68 1   
    59    24    69 1   
    60    24    70 1   
    61    24    71 1   
    62    26    27 1   
    63    26    72 1   
    64    26    73 1   
    65    27    28 1   
    66    27    74 1   
    67    27    75 1   
    68    28    29 1   
    69    28    76 1   
    70    28    77 1   
    71    29    78 1   
    72    29    79 1   
    73    29    80 1   
    74    30    81 1   
    75    31    82 1   
    76    32    33 ar  
    77    32    83 1   
    78    33    34 1   
    79    33    42 ar  
    80    34    35 1   
    81    34    38 1   
    82    35    36 1   
    83    35    84 1   
    84    35    85 1   
    85    36    37 1   
    86    36    86 1   
    87    36    87 1   
    88    37    88 1   
    89    37    89 1   
    90    37    90 1   
    91    38    39 2   
    92    38    40 1   
    93    38    41 2   
    94    40    91 1   
    95    40    92 1   
    96    40    93 1   
    97    42    94 1   
@<TRIPOS>SUBSTRUCTURE
     1 L4J         1 TEMP              0 ****  ****    0 ROOT
