@<TRIPOS>MOLECULE
L4J
   95    97     1     0     0
SMALL
abcg2


@<TRIPOS>ATOM
      1 C10         11.7900   -18.9980    61.8200 ca         1 L4J      -0.080300
      2 C11         12.9660   -19.6640    62.1610 ca         1 L4J      -0.108000
      3 C12         13.8310   -19.1290    63.1130 ca         1 L4J      -0.103000
      4 C13         13.5280   -17.9270    63.7410 ca         1 L4J      -0.098000
      5 C14         12.3560   -17.2400    63.4160 ca         1 L4J      -0.076300
      6 C02         10.6500   -18.3160    66.5330 c          1 L4J       0.608700
      7 C03          9.7930   -19.5190    66.2680 ca         1 L4J      -0.127600
      8 C04          9.6750   -20.0460    64.9820 ca         1 L4J      -0.101000
      9 C05          8.9500   -21.2140    64.7540 ca         1 L4J      -0.058300
     10 C06          8.8490   -21.8580    63.3860 c3         1 L4J      -0.029100
     11 C07          9.9340   -21.4490    62.3830 c3         1 L4J      -0.078400
     12 C08          9.5840   -20.2080    61.5580 c3         1 L4J      -0.074400
     13 C09         10.7940   -19.5780    60.8470 c3         1 L4J      -0.031100
     14 C15         11.9770   -15.9660    64.1220 c3         1 L4J      -0.051100
     15 C16         11.4550   -16.1780    65.5590 c3         1 L4J       0.114700
     16 C17         10.7680   -14.8960    66.0420 c3         1 L4J       0.166800
     17 N18         10.3380   -14.9500    67.4360 n7         1 L4J      -0.858400
     18 C19         10.6780   -13.7770    68.2270 c3         1 L4J       0.119500
     19 C20         12.1940   -13.7320    68.4600 c          1 L4J       0.585100
     20 N21         12.7670   -12.5450    68.2150 ns         1 L4J      -0.516900
     21 C22         14.1680   -12.2600    68.4790 c3         1 L4J       0.108000
     22 C23         14.4640   -10.7600    68.4910 c3         1 L4J      -0.080700
     23 C24         15.9350   -10.5470    68.8510 c3         1 L4J      -0.087100
     24 C25         13.5540    -9.9910    69.4510 c3         1 L4J      -0.087100
     25 O26         12.8250   -14.7010    68.8870 o          1 L4J      -0.573100
     26 C27          9.9540   -13.8230    69.5770 c3         1 L4J      -0.076400
     27 C28         10.2640   -12.6380    70.4880 c3         1 L4J      -0.077400
     28 C29          9.5410   -12.7070    71.8320 c3         1 L4J      -0.074400
     29 C30          9.9990   -11.6190    72.8000 c3         1 L4J      -0.089100
     30 N31         10.5590   -17.3260    65.6230 ns         1 L4J      -0.494900
     31 C32         11.5100   -17.7860    62.4540 ca         1 L4J      -0.118000
     32 C33          8.3300   -21.8290    65.8400 ca         1 L4J      -0.111000
     33 C34          8.4260   -21.3000    67.1250 ca         1 L4J       0.293000
     34 N35          7.8250   -21.9550    68.2420 nh         1 L4J      -0.826300
     35 C36          8.6410   -22.1970    69.4540 c3         1 L4J       0.234800
     36 C37          9.9330   -22.9540    69.1590 c3         1 L4J      -0.095400
     37 C38          9.7280   -24.2740    68.4220 c3         1 L4J      -0.087100
     38 S39          6.2290   -22.3470    68.2580 s6         1 L4J       1.261100
     39 O40          5.7370   -22.1550    69.6070 o          1 L4J      -0.542000
     40 C41          6.1290   -24.0840    67.9140 c3         1 L4J      -0.373100
     41 O42          5.5870   -21.6320    67.1790 o          1 L4J      -0.542000
     42 C43          9.1740   -20.1480    67.3420 ca         1 L4J      -0.075000
     43 H1          13.2050   -20.6050    61.6810 ha         1 L4J       0.112000
     44 H2          14.7420   -19.6560    63.3670 ha         1 L4J       0.116000
     45 H3          14.2030   -17.5180    64.4840 ha         1 L4J       0.120000
     46 H4          10.2020   -19.5670    64.1700 ha         1 L4J       0.127000
     47 H5           7.8620   -21.6300    62.9660 hc         1 L4J       0.050700
     48 H6           8.8650   -22.9410    63.5260 hc         1 L4J       0.050700
     49 H7          10.1210   -22.2790    61.6970 hc         1 L4J       0.046700
     50 H8          10.8730   -21.2920    62.9200 hc         1 L4J       0.046700
     51 H9           9.1180   -19.4470    62.1900 hc         1 L4J       0.041200
     52 H10          8.8340   -20.4850    60.8120 hc         1 L4J       0.041200
     53 H11         11.2780   -20.3250    60.2120 hc         1 L4J       0.048700
     54 H12         10.4330   -18.7830    60.1900 hc         1 L4J       0.048700
     55 H13         12.8390   -15.2990    64.1920 hc         1 L4J       0.051200
     56 H14         11.2130   -15.4440    63.5400 hc         1 L4J       0.051200
     57 H15         12.2900   -16.4060    66.2190 h1         1 L4J       0.104700
     58 H16         11.4770   -14.0740    65.9100 h1         1 L4J       0.027700
     59 H17          9.9260   -14.6890    65.3710 h1         1 L4J       0.027700
     60 H18          9.3420   -15.1170    67.4960 hn         1 L4J       0.428000
     61 H20         10.3870   -12.8440    67.7190 h1         1 L4J       0.008700
     62 H21         12.1910   -11.8160    67.8250 hn         1 L4J       0.306500
     63 H22         14.4350   -12.6980    69.4440 h1         1 L4J       0.052200
     64 H23         14.7890   -12.7490    67.7220 h1         1 L4J       0.052200
     65 H24         14.3070   -10.3780    67.4750 hc         1 L4J       0.043700
     66 H25         16.2030    -9.4910    68.7790 hc         1 L4J       0.036367
     67 H26         16.1300   -10.8740    69.8760 hc         1 L4J       0.036367
     68 H27         16.5930   -11.1100    68.1860 hc         1 L4J       0.036367
     69 H28         13.8260    -8.9330    69.4640 hc         1 L4J       0.036367
     70 H29         12.5010   -10.0580    69.1750 hc         1 L4J       0.036367
     71 H30         13.6570   -10.3780    70.4690 hc         1 L4J       0.036367
     72 H31          8.8790   -13.8530    69.3710 hc         1 L4J       0.058700
     73 H32         10.2080   -14.7600    70.0790 hc         1 L4J       0.058700
     74 H33         11.3410   -12.5790    70.6690 hc         1 L4J       0.038200
     75 H34          9.9900   -11.7070    69.9810 hc         1 L4J       0.038200
     76 H35          8.4620   -12.6230    71.6680 hc         1 L4J       0.040700
     77 H36          9.7070   -13.6930    72.2800 hc         1 L4J       0.040700
     78 H37          9.4690   -11.6840    73.7530 hc         1 L4J       0.032033
     79 H38         11.0700   -11.7050    73.0040 hc         1 L4J       0.032033
     80 H39          9.8200   -10.6240    72.3840 hc         1 L4J       0.032033
     81 H40          9.9200   -17.4560    64.8540 hn         1 L4J       0.307500
     82 H41         10.5980   -17.2560    62.1980 ha         1 L4J       0.105000
     83 H42          7.7860   -22.7500    65.6820 ha         1 L4J       0.107000
     84 H43          8.8670   -21.2400    69.9270 h1         1 L4J       0.059700
     85 H44          8.0260   -22.7590    70.1530 h1         1 L4J       0.059700
     86 H45         10.4110   -23.1400    70.1240 hc         1 L4J       0.056200
     87 H46         10.6150   -22.3130    68.5960 hc         1 L4J       0.056200
     88 H47         10.6850   -24.7650    68.2410 hc         1 L4J       0.032700
     89 H48          9.1030   -24.9570    69.0010 hc         1 L4J       0.032700
     90 H49          9.2470   -24.1180    67.4550 hc         1 L4J       0.032700
     91 H50          6.6280   -24.6260    68.7150 h1         1 L4J       0.100700
     92 H51          5.0710   -24.3400    67.8810 h1         1 L4J       0.100700
     93 H52          6.6040   -24.2860    66.9570 h1         1 L4J       0.100700
     94 H53          9.2820   -19.7390    68.3360 ha         1 L4J       0.140000
     95 O01         11.3910   -18.2780    67.5190 o          1 L4J      -0.579100
@<TRIPOS>BOND
     1     1     2 ar  
     2     1    13 1   
     3     1    31 ar  
     4     2     3 ar  
     5     2    43 1   
     6     3     4 ar  
     7     3    44 1   
     8     4     5 ar  
     9     4    45 1   
    10     5    14 1   
    11     5    31 ar  
    12     6     7 1   
    13     6    30 1   
    14     6    95 2   
    15     7     8 ar  
    16     7    42 ar  
    17     8     9 ar  
    18     8    46 1   
    19     9    10 1   
    20     9    32 ar  
    21    10    11 1   
    22    10    47 1   
    23    10    48 1   
    24    11    12 1   
    25    11    49 1   
    26    11    50 1   
    27    12    13 1   
    28    12    51 1   
    29    12    52 1   
    30    13    53 1   
    31    13    54 1   
    32    14    15 1   
    33    14    55 1   
    34    14    56 1   
    35    15    16 1   
    36    15    30 1   
    37    15    57 1   
    38    16    17 1   
    39    16    58 1   
    40    16    59 1   
    41    17    18 1   
    42    17    60 1   
    43    18    19 1   
    44    18    26 1   
    45    18    61 1   
    46    19    20 1   
    47    19    25 2   
    48    20    21 1   
    49    20    62 1   
    50    21    22 1   
    51    21    63 1   
    52    21    64 1   
    53    22    23 1   
    54    22    24 1   
    55    22    65 1   
    56    23    66 1   
    57    23    67 1   
    58    23    68 1   
    59    24    69 1   
    60    24    70 1   
    61    24    71 1   
    62    26    27 1   
    63    26    72 1   
    64    26    73 1   
    65    27    28 1   
    66    27    74 1   
    67    27    75 1   
    68    28    29 1   
    69    28    76 1   
    70    28    77 1   
    71    29    78 1   
    72    29    79 1   
    73    29    80 1   
    74    30    81 1   
    75    31    82 1   
    76    32    33 ar  
    77    32    83 1   
    78    33    34 1   
    79    33    42 ar  
    80    34    35 1   
    81    34    38 1   
    82    35    36 1   
    83    35    84 1   
    84    35    85 1   
    85    36    37 1   
    86    36    86 1   
    87    36    87 1   
    88    37    88 1   
    89    37    89 1   
    90    37    90 1   
    91    38    39 2   
    92    38    40 1   
    93    38    41 2   
    94    40    91 1   
    95    40    92 1   
    96    40    93 1   
    97    42    94 1   
@<TRIPOS>SUBSTRUCTURE
     1 L4J         1 TEMP              0 ****  ****    0 ROOT
