@<TRIPOS>MOLECULE
L4K
   32    32     1     0     0
SMALL
No Charge or Current Charge


@<TRIPOS>ATOM
      1 N            4.2890    -0.0060    -1.1720 n8         1 L4K      -1.005100
      2 C           -7.2210     0.0040     0.6880 c3         1 L4K      -0.089100
      3 O            3.9540     1.2640     0.8740 o          1 L4K      -0.545000
      4 C1          -5.7160    -0.0000     1.0180 c3         1 L4K      -0.075400
      5 C10         -0.2420     1.2130    -0.6360 ca         1 L4K      -0.132500
      6 C2          -4.8210     0.0040    -0.2400 c3         1 L4K      -0.076400
      7 C3          -3.3130     0.0000     0.0910 c3         1 L4K      -0.073400
      8 C5          -0.9340     0.0000    -0.8100 ca         1 L4K      -0.018300
      9 C6          -0.2460    -1.2170    -0.6470 ca         1 L4K      -0.132500
     10 C7           1.1200    -1.2240    -0.3150 ca         1 L4K      -0.006000
     11 C8           1.8100    -0.0070    -0.1410 ca         1 L4K      -0.277500
     12 C9           1.1240     1.2140    -0.3040 ca         1 L4K      -0.006000
     13 O1           3.9500    -1.2950     0.8610 o          1 L4K      -0.545000
     14 S            3.5550    -0.0120     0.2840 sy         1 L4K       1.125600
     15 H1           4.9190     0.7840    -1.0550 hn         1 L4K       0.473000
     16 H2           4.9170    -0.7980    -1.0620 hn         1 L4K       0.473000
     17 H3          -7.4900     0.8960     0.1110 hc         1 L4K       0.032033
     18 H4          -7.4930    -0.8830     0.1030 hc         1 L4K       0.032033
     19 H5          -7.8150     0.0000     1.6100 hc         1 L4K       0.032033
     20 H6          -5.4840     0.8780     1.6330 hc         1 L4K       0.038700
     21 H7          -5.4870    -0.8850     1.6250 hc         1 L4K       0.038700
     22 H8          -0.7640     2.1600    -0.7560 ha         1 L4K       0.118500
     23 H9          -5.0580    -0.8750    -0.8530 hc         1 L4K       0.037700
     24 H10         -5.0550     0.8890    -0.8450 hc         1 L4K       0.037700
     25 H11         -3.0750     0.8790     0.7040 hc         1 L4K       0.044700
     26 H12         -3.0770    -0.8850     0.6960 hc         1 L4K       0.044700
     27 H13         -2.6560    -0.8700    -1.7830 hc         1 L4K       0.051200
     28 H14         -2.6530     0.8840    -1.7750 hc         1 L4K       0.051200
     29 H15         -0.7700    -2.1600    -0.7770 ha         1 L4K       0.118500
     30 H16          1.6360    -2.1760    -0.1960 ha         1 L4K       0.136500
     31 H17          1.6430     2.1620    -0.1750 ha         1 L4K       0.136500
     32 C4          -2.4150     0.0040    -1.1650 c3         1 L4K      -0.042100
@<TRIPOS>BOND
     1     1    14 1   
     2     1    15 1   
     3     1    16 1   
     4     2     4 1   
     5     2    17 1   
     6     2    18 1   
     7     2    19 1   
     8     3    14 2   
     9     4     6 1   
    10     4    20 1   
    11     4    21 1   
    12     5     8 ar  
    13     5    12 ar  
    14     5    22 1   
    15     6     7 1   
    16     6    23 1   
    17     6    24 1   
    18     7    25 1   
    19     7    26 1   
    20     7    32 1   
    21     8     9 ar  
    22     8    32 1   
    23     9    10 ar  
    24     9    29 1   
    25    10    11 ar  
    26    10    30 1   
    27    11    12 ar  
    28    11    14 1   
    29    12    31 1   
    30    13    14 2   
    31    27    32 1   
    32    28    32 1   
@<TRIPOS>SUBSTRUCTURE
     1 L4K         1 TEMP              0 ****  ****    0 ROOT
