@<TRIPOS>MOLECULE
L4K
   32    32     1     0     0
SMALL
bcc


@<TRIPOS>ATOM
      1 N            4.1560     0.6380    -0.9560 n8         1 L4K      -0.894700
      2 C           -7.1000     0.1480     0.6950 c3         1 L4K      -0.089100
      3 O            3.6030     0.9060     1.4460 o          1 L4K      -0.615800
      4 C1          -5.6100     0.2070     0.9980 c3         1 L4K      -0.075400
      5 C10         -0.2840     1.0260    -0.6080 ca         1 L4K      -0.150500
      6 C2          -4.7460    -0.0440    -0.2320 c3         1 L4K      -0.076400
      7 C3          -3.2550    -0.0060     0.0720 c3         1 L4K      -0.073400
      8 C5          -0.9270    -0.1910    -0.8480 ca         1 L4K      -0.018300
      9 C6          -0.1920    -1.3660    -0.7290 ca         1 L4K      -0.150500
     10 C7           1.1490    -1.3420    -0.3730 ca         1 L4K      -0.024000
     11 C8           1.7590    -0.1210    -0.1350 ca         1 L4K      -0.277500
     12 C9           1.0500     1.0700    -0.2500 ca         1 L4K      -0.024000
     13 O1           3.9030    -1.4260     0.5980 o          1 L4K      -0.615800
     14 S            3.4520    -0.0590     0.3650 sy         1 L4K       1.267200
     15 H1           5.0660     1.0290    -0.7310 hn         1 L4K       0.417800
     16 H2           4.2290     0.0040    -1.7450 hn         1 L4K       0.417800
     17 H3          -7.3790     0.8850    -0.0600 hc         1 L4K       0.032033
     18 H4          -7.3860    -0.8350     0.3160 hc         1 L4K       0.032033
     19 H5          -7.6980     0.3460     1.5850 hc         1 L4K       0.032033
     20 H6          -5.3600     1.1850     1.4210 hc         1 L4K       0.038700
     21 H7          -5.3630    -0.5290     1.7690 hc         1 L4K       0.038700
     22 H8          -0.8380     1.9520    -0.7020 ha         1 L4K       0.136500
     23 H9          -5.0040    -1.0160    -0.6650 hc         1 L4K       0.037700
     24 H10         -4.9800     0.7030    -0.9990 hc         1 L4K       0.037700
     25 H11         -2.9970     0.9560     0.5260 hc         1 L4K       0.044700
     26 H12         -3.0130    -0.7720     0.8160 hc         1 L4K       0.044700
     27 H13         -2.6480    -1.1780    -1.6340 hc         1 L4K       0.051200
     28 H14         -2.6210     0.5560    -1.9090 hc         1 L4K       0.051200
     29 H15         -0.6710    -2.3190    -0.9160 ha         1 L4K       0.136500
     30 H16          1.7000    -2.2670    -0.2820 ha         1 L4K       0.154500
     31 H17          1.5280     2.0240    -0.0660 ha         1 L4K       0.154500
     32 C4          -2.3910    -0.2210    -1.1740 c3         1 L4K      -0.042100
@<TRIPOS>BOND
     1     1    14 1   
     2     1    15 1   
     3     1    16 1   
     4     2     4 1   
     5     2    17 1   
     6     2    18 1   
     7     2    19 1   
     8     3    14 2   
     9     4     6 1   
    10     4    20 1   
    11     4    21 1   
    12     5     8 ar  
    13     5    12 ar  
    14     5    22 1   
    15     6     7 1   
    16     6    23 1   
    17     6    24 1   
    18     7    25 1   
    19     7    26 1   
    20     7    32 1   
    21     8     9 ar  
    22     8    32 1   
    23     9    10 ar  
    24     9    29 1   
    25    10    11 ar  
    26    10    30 1   
    27    11    12 ar  
    28    11    14 1   
    29    12    31 1   
    30    13    14 2   
    31    27    32 1   
    32    28    32 1   
@<TRIPOS>SUBSTRUCTURE
     1 L4K         1 TEMP              0 ****  ****    0 ROOT
