@<TRIPOS>MOLECULE
L4L
   46    46     1     0     0
SMALL
No Charge or Current Charge


@<TRIPOS>ATOM
      1 C01          7.9740    -6.2770    17.3580 c2         1 L4L      -0.243000
      2 C02          7.5250    -5.2610    16.5790 ce         1 L4L      -0.289200
      3 C03          6.0840    -5.0220    16.2370 c          1 L4L       0.564300
      4 C04          5.7200    -3.7610    15.4100 c3         1 L4L       0.012700
      5 C07          4.3130    -2.0970    17.4980 c3         1 L4L      -0.182100
      6 C09          6.1310    -3.9100    13.9270 c3         1 L4L       0.162600
      7 C11          8.1080    -3.9940    12.4990 c6         1 L4L       0.353300
      8 C12          9.6450    -3.7100    12.4930 c6         1 L4L       0.152300
      9 C14         10.2310    -3.9730    11.0590 c6         1 L4L       0.198300
     10 C20          9.8430    -5.4180    10.6020 c6         1 L4L       0.115300
     11 C22          8.2980    -5.6280    10.7440 c6         1 L4L       0.183300
     12 C23          7.8440    -7.0740    10.3500 c3         1 L4L       0.167600
     13 N05          6.2840    -2.5310    16.0280 ns         1 L4L      -0.510900
     14 O08          6.1350    -0.5710    17.1180 o          1 L4L      -0.595100
     15 O10          7.5620    -3.7890    13.8150 os         1 L4L      -0.461000
     16 O13          9.9430    -2.3740    12.9720 oh         1 L4L      -0.689000
     17 O15         11.6780    -3.8680    11.0820 os         1 L4L      -0.587700
     18 O17         11.9500    -1.6620    10.0270 o          1 L4L      -0.702200
     19 O18         11.9220    -3.7040     8.6460 o          1 L4L      -0.702200
     20 O19         13.8470    -3.2440    10.1260 o          1 L4L      -0.702200
     21 O21         10.6230    -6.3770    11.3520 oh         1 L4L      -0.727000
     22 O24          6.4140    -7.2630    10.4150 oh         1 L4L      -0.725000
     23 O25          7.8680    -5.3530    12.1010 os         1 L4L      -0.469000
     24 O26          5.2080    -5.7790    16.6420 o          1 L4L      -0.533100
     25 S16         12.4140    -3.0470     9.8640 s6         1 L4L       1.492300
     26 H1           7.2980    -7.0150    17.7950 ha         1 L4L       0.170000
     27 H011         9.0340    -6.4000    17.5830 ha         1 L4L       0.170000
     28 H2           8.2280    -4.5390    16.1680 ha         1 L4L       0.197000
     29 H041         4.6250    -3.6960    15.4200 h1         1 L4L       0.074700
     30 H071         3.9710    -1.4030    18.2740 hc         1 L4L       0.057700
     31 H073         3.5560    -2.1990    16.7130 hc         1 L4L       0.057700
     32 H072         4.4110    -3.1190    17.8800 hc         1 L4L       0.057700
     33 H092         5.6360    -3.1270    13.3380 h1         1 L4L       0.056700
     34 H091         5.7820    -4.8830    13.5540 h1         1 L4L       0.056700
     35 H111         7.6100    -3.3110    11.7950 h2         1 L4L       0.025700
     36 H121        10.1010    -4.4430    13.1760 h1         1 L4L       0.072700
     37 H141         9.7980    -3.2370    10.3650 h1         1 L4L       0.066700
     38 H201        10.0890    -5.5060     9.5320 h1         1 L4L       0.068700
     39 H221         7.7860    -4.9270    10.0680 h1         1 L4L       0.045700
     40 H231         8.3480    -7.7860    11.0180 h1         1 L4L       0.040200
     41 H232         8.2030    -7.2750     9.3310 h1         1 L4L       0.040200
     42 H051         7.1740    -2.2000    15.6740 hn         1 L4L       0.336500
     43 H131         9.4200    -2.2620    13.7980 ho         1 L4L       0.494000
     44 H211        11.4880    -5.9200    11.5020 ho         1 L4L       0.535000
     45 H241         6.2430    -8.2180    10.2390 ho         1 L4L       0.494000
     46 C06          5.6300    -1.6510    16.8610 c          1 L4L       0.604100
@<TRIPOS>BOND
     1     1     2 2   
     2     1    26 1   
     3     1    27 1   
     4     2     3 1   
     5     2    28 1   
     6     3     4 1   
     7     3    24 2   
     8     4     6 1   
     9     4    13 1   
    10     4    29 1   
    11     5    30 1   
    12     5    31 1   
    13     5    32 1   
    14     5    46 1   
    15     6    15 1   
    16     6    33 1   
    17     6    34 1   
    18     7     8 1   
    19     7    15 1   
    20     7    23 1   
    21     7    35 1   
    22     8     9 1   
    23     8    16 1   
    24     8    36 1   
    25     9    10 1   
    26     9    17 1   
    27     9    37 1   
    28    10    11 1   
    29    10    21 1   
    30    10    38 1   
    31    11    12 1   
    32    11    23 1   
    33    11    39 1   
    34    12    22 1   
    35    12    40 1   
    36    12    41 1   
    37    13    42 1   
    38    13    46 1   
    39    14    46 2   
    40    16    43 1   
    41    17    25 1   
    42    18    25 1   
    43    19    25 1   
    44    20    25 1   
    45    21    44 1   
    46    22    45 1   
@<TRIPOS>SUBSTRUCTURE
     1 L4L         1 TEMP              0 ****  ****    0 ROOT
