@<TRIPOS>MOLECULE
L4L
   46    46     1     0     0
SMALL
abcg2


@<TRIPOS>ATOM
      1 C01          8.0570    -5.3350    18.2280 c2         1 L4L      -0.243000
      2 C02          7.6510    -4.6960    17.1330 ce         1 L4L      -0.289200
      3 C03          6.3450    -4.9950    16.5060 c          1 L4L       0.564300
      4 C04          5.8200    -4.0450    15.4250 c3         1 L4L       0.012700
      5 C07          4.7180    -1.9770    17.1320 c3         1 L4L      -0.182100
      6 C09          6.0880    -4.6560    14.0560 c3         1 L4L       0.162600
      7 C11          7.9820    -4.5370    12.6310 c6         1 L4L       0.353300
      8 C12          9.4760    -4.2320    12.7470 c6         1 L4L       0.152300
      9 C14         10.0160    -4.0170    11.3390 c6         1 L4L       0.198300
     10 C20          9.6820    -5.2110    10.4370 c6         1 L4L       0.115300
     11 C22          8.1840    -5.4850    10.5070 c6         1 L4L       0.183300
     12 C23          7.7770    -6.6970     9.6970 c3         1 L4L       0.167600
     13 N05          6.3600    -2.7110    15.4860 ns         1 L4L      -0.510900
     14 O08          6.4750    -0.6070    16.2580 o          1 L4L      -0.595100
     15 O10          7.4880    -4.7730    13.8970 os         1 L4L      -0.461000
     16 O13          9.6950    -3.0640    13.4920 oh         1 L4L      -0.689000
     17 O15         11.4130    -3.8180    11.4560 os         1 L4L      -0.587700
     18 O17         11.4090    -1.8150     9.9750 o          1 L4L      -0.702200
     19 O18         12.3610    -3.9280     9.1620 o          1 L4L      -0.702200
     20 O19         13.4760    -2.7040    10.9820 o          1 L4L      -0.702200
     21 O21         10.3790    -6.3690    10.8220 oh         1 L4L      -0.727000
     22 O24          6.3710    -6.7310     9.6210 oh         1 L4L      -0.725000
     23 O25          7.7640    -5.6730    11.8450 os         1 L4L      -0.469000
     24 O26          5.6860    -5.9680    16.8010 o          1 L4L      -0.533100
     25 S16         12.2290    -2.9890    10.2800 s6         1 L4L       1.492300
     26 H1           7.4480    -6.0880    18.7110 ha         1 L4L       0.170000
     27 H011         9.0130    -5.1150    18.6830 ha         1 L4L       0.170000
     28 H2           8.2720    -3.9290    16.6880 ha         1 L4L       0.197000
     29 H041         4.7330    -4.0140    15.5340 h1         1 L4L       0.074700
     30 H071         4.4940    -1.1010    17.7360 hc         1 L4L       0.057700
     31 H073         3.8420    -2.2080    16.5240 hc         1 L4L       0.057700
     32 H072         4.8810    -2.8240    17.8000 hc         1 L4L       0.057700
     33 H092         5.6520    -4.0100    13.2860 h1         1 L4L       0.056700
     34 H091         5.6020    -5.6330    13.9900 h1         1 L4L       0.056700
     35 H111         7.4740    -3.6650    12.1760 h2         1 L4L       0.025700
     36 H121         9.9730    -5.1010    13.1980 h1         1 L4L       0.072700
     37 H141         9.5320    -3.1260    10.9180 h1         1 L4L       0.066700
     38 H201         9.9110    -4.9370     9.3990 h1         1 L4L       0.068700
     39 H221         7.6800    -4.6030    10.0790 h1         1 L4L       0.045700
     40 H231         8.1810    -7.6050    10.1580 h1         1 L4L       0.040200
     41 H232         8.2360    -6.6060     8.7030 h1         1 L4L       0.040200
     42 H051         7.1850    -2.5150    14.9350 hn         1 L4L       0.336500
     43 H131         9.6240    -3.2790    14.4270 ho         1 L4L       0.494000
     44 H211        11.3220    -6.1880    10.7450 ho         1 L4L       0.535000
     45 H241         6.1160    -7.5300     9.1540 ho         1 L4L       0.494000
     46 C06          5.9230    -1.6960    16.2700 c          1 L4L       0.604100
@<TRIPOS>BOND
     1     1     2 2   
     2     1    26 1   
     3     1    27 1   
     4     2     3 1   
     5     2    28 1   
     6     3     4 1   
     7     3    24 2   
     8     4     6 1   
     9     4    13 1   
    10     4    29 1   
    11     5    30 1   
    12     5    31 1   
    13     5    32 1   
    14     5    46 1   
    15     6    15 1   
    16     6    33 1   
    17     6    34 1   
    18     7     8 1   
    19     7    15 1   
    20     7    23 1   
    21     7    35 1   
    22     8     9 1   
    23     8    16 1   
    24     8    36 1   
    25     9    10 1   
    26     9    17 1   
    27     9    37 1   
    28    10    11 1   
    29    10    21 1   
    30    10    38 1   
    31    11    12 1   
    32    11    23 1   
    33    11    39 1   
    34    12    22 1   
    35    12    40 1   
    36    12    41 1   
    37    13    42 1   
    38    13    46 1   
    39    14    46 2   
    40    16    43 1   
    41    17    25 1   
    42    18    25 1   
    43    19    25 1   
    44    20    25 1   
    45    21    44 1   
    46    22    45 1   
@<TRIPOS>SUBSTRUCTURE
     1 L4L         1 TEMP              0 ****  ****    0 ROOT
