@<TRIPOS>MOLECULE
L4M
   35    36     1     0     0
SMALL
abcg2


@<TRIPOS>ATOM
      1 C10          1.2480    -0.4450    -0.1450 c5         1 L4M      -0.066700
      2 C13          2.1920    -2.5720    -0.9330 c5         1 L4M      -0.081400
      3 C01         -2.9090     1.2390    -0.5150 ca         1 L4M      -0.093500
      4 C02         -3.7870     0.2980     0.0200 ca         1 L4M      -0.145600
      5 C03         -3.2660    -0.6620     0.8840 ca         1 L4M      -0.093500
      6 C04         -1.9140    -0.6820     1.2010 ca         1 L4M      -0.142500
      7 C05         -1.0360     0.2560     0.6640 ca         1 L4M      -0.095300
      8 C06         -1.5590     1.2180    -0.1990 ca         1 L4M      -0.142500
      9 C07          0.4350     0.2200     0.9660 c3         1 L4M      -0.016100
     10 C08          3.4150     0.9300    -0.0590 c3         1 L4M      -0.196400
     11 C11          2.7630    -0.4340     0.0860 c5         1 L4M      -0.038700
     12 C14          3.2550    -1.4630    -0.9310 c5         1 L4M      -0.069400
     13 C09          4.9260     0.9740     0.2290 c          1 L4M       0.715000
     14 C12          0.9160    -1.9290    -0.3460 c5         1 L4M      -0.072400
     15 O15          5.5810     1.8590    -0.3630 o          1 L4M      -0.752000
     16 O16          5.3780     0.1540     1.0530 o          1 L4M      -0.752000
     17 O18         -5.6430     1.2110    -1.1180 o          1 L4M      -0.735500
     18 O19         -5.9820    -0.5530     0.1980 o          1 L4M      -0.735500
     19 H1           1.0480     0.0900    -1.0830 hc         1 L4M       0.043700
     20 H2           2.0260    -2.9680    -1.9360 hc         1 L4M       0.015700
     21 H3           2.5110    -3.4160    -0.3190 hc         1 L4M       0.015700
     22 H4          -3.2910     1.9990    -1.1840 ha         1 L4M       0.116500
     23 H5          -3.9260    -1.4020     1.3170 ha         1 L4M       0.116500
     24 H6          -1.5340    -1.4410     1.8760 ha         1 L4M       0.087000
     25 H7          -0.9000     1.9650    -0.6290 ha         1 L4M       0.087000
     26 H8           0.6100    -0.3200     1.9020 hc         1 L4M       0.037200
     27 H9           0.7960     1.2410     1.1220 hc         1 L4M       0.037200
     28 H10          3.2190     1.3210    -1.0630 hc         1 L4M       0.019700
     29 H11          2.9390     1.6420     0.6280 hc         1 L4M       0.019700
     30 H12          2.9590    -0.8170     1.0960 hc         1 L4M       0.055700
     31 H13          4.2550    -1.8330    -0.7020 hc         1 L4M       0.041200
     32 H14          3.3070    -0.9880    -1.9170 hc         1 L4M       0.041200
     33 H15          0.6700    -2.3820     0.6190 hc         1 L4M       0.032200
     34 H16          0.0430    -2.0710    -0.9850 hc         1 L4M       0.032200
     35 C17         -5.2670     0.3210    -0.3300 c          1 L4M       0.714600
@<TRIPOS>BOND
     1     1     9 1   
     2     1    11 1   
     3     1    14 1   
     4     1    19 1   
     5     2    12 1   
     6     2    14 1   
     7     2    20 1   
     8     2    21 1   
     9     3     4 ar  
    10     3     8 ar  
    11     3    22 1   
    12     4     5 ar  
    13     4    35 1   
    14     5     6 ar  
    15     5    23 1   
    16     6     7 ar  
    17     6    24 1   
    18     7     8 ar  
    19     7     9 1   
    20     8    25 1   
    21     9    26 1   
    22     9    27 1   
    23    10    11 1   
    24    10    13 1   
    25    10    28 1   
    26    10    29 1   
    27    11    12 1   
    28    11    30 1   
    29    12    31 1   
    30    12    32 1   
    31    13    15 1   
    32    13    16 1   
    33    14    33 1   
    34    14    34 1   
    35    17    35 1   
    36    18    35 1   
@<TRIPOS>SUBSTRUCTURE
     1 L4M         1 TEMP              0 ****  ****    0 ROOT
