@<TRIPOS>MOLECULE
L4M
   35    36     1     0     0
SMALL
No Charge or Current Charge


@<TRIPOS>ATOM
      1 C10          1.2780    -0.3570    -0.1930 c5         1 L4M      -0.066700
      2 C13          2.1490    -2.4180    -1.1940 c5         1 L4M      -0.081400
      3 C01         -3.0130     1.0970    -0.6770 ca         1 L4M      -0.093500
      4 C02         -3.8690     0.2250     0.0390 ca         1 L4M      -0.145600
      5 C03         -3.3000    -0.6020     1.0360 ca         1 L4M      -0.093500
      6 C04         -1.9210    -0.5580     1.3070 ca         1 L4M      -0.142500
      7 C05         -1.0800     0.3110     0.5910 ca         1 L4M      -0.095300
      8 C06         -1.6350     1.1370    -0.4020 ca         1 L4M      -0.142500
      9 C07          0.4170     0.3570     0.8810 c3         1 L4M      -0.016100
     10 C08          3.5370     0.9180     0.2420 c3         1 L4M      -0.196400
     11 C11          2.8020    -0.4480     0.1180 c5         1 L4M      -0.038700
     12 C14          3.2580    -1.3260    -1.0820 c5         1 L4M      -0.069400
     13 C09          5.0490     0.7220     0.4680 c          1 L4M       0.715000
     14 C12          0.9520    -1.8680    -0.3610 c5         1 L4M      -0.072400
     15 O15          5.7870     0.7070    -0.5050 o          1 L4M      -0.752000
     16 O16          5.4450     0.5670     1.6140 o          1 L4M      -0.752000
     17 O18         -5.8100     0.9120    -1.1270 o          1 L4M      -0.735500
     18 O19         -6.0640    -0.5880     0.3860 o          1 L4M      -0.735500
     19 H1           1.1080     0.1780    -1.1360 hc         1 L4M       0.043700
     20 H2           1.8700    -2.5840    -2.2410 hc         1 L4M       0.015700
     21 H3           2.4900    -3.3820    -0.8000 hc         1 L4M       0.015700
     22 H4          -3.4140     1.7470    -1.4510 ha         1 L4M       0.116500
     23 H5          -3.9260    -1.2860     1.6050 ha         1 L4M       0.116500
     24 H6          -1.5070    -1.2070     2.0760 ha         1 L4M       0.087000
     25 H7          -0.9970     1.8140    -0.9650 ha         1 L4M       0.087000
     26 H8           0.6210    -0.0840     1.8640 hc         1 L4M       0.037200
     27 H9           0.7280     1.4060     0.9600 hc         1 L4M       0.037200
     28 H10          3.3610     1.4620    -0.6950 hc         1 L4M       0.019700
     29 H11          3.1040     1.4150     1.1180 hc         1 L4M       0.019700
     30 H12          2.9710    -0.9800     1.0640 hc         1 L4M       0.055700
     31 H13          4.2490    -1.7670    -0.9240 hc         1 L4M       0.041200
     32 H14          3.3150    -0.7370    -2.0050 hc         1 L4M       0.041200
     33 H15          0.8930    -2.3700     0.6120 hc         1 L4M       0.032200
     34 H16         -0.0080    -2.0320    -0.8620 hc         1 L4M       0.032200
     35 C17         -5.3610     0.1790    -0.2570 c          1 L4M       0.714600
@<TRIPOS>BOND
     1     1     9 1   
     2     1    11 1   
     3     1    14 1   
     4     1    19 1   
     5     2    12 1   
     6     2    14 1   
     7     2    20 1   
     8     2    21 1   
     9     3     4 ar  
    10     3     8 ar  
    11     3    22 1   
    12     4     5 ar  
    13     4    35 1   
    14     5     6 ar  
    15     5    23 1   
    16     6     7 ar  
    17     6    24 1   
    18     7     8 ar  
    19     7     9 1   
    20     8    25 1   
    21     9    26 1   
    22     9    27 1   
    23    10    11 1   
    24    10    13 1   
    25    10    28 1   
    26    10    29 1   
    27    11    12 1   
    28    11    30 1   
    29    12    31 1   
    30    12    32 1   
    31    13    15 1   
    32    13    16 1   
    33    14    33 1   
    34    14    34 1   
    35    17    35 1   
    36    18    35 1   
@<TRIPOS>SUBSTRUCTURE
     1 L4M         1 TEMP              0 ****  ****    0 ROOT
