@<TRIPOS>MOLECULE
L4N
   35    37     1     0     0
SMALL
No Charge or Current Charge


@<TRIPOS>ATOM
      1 N1           8.9700     0.1200    20.8910 ns         1 L4N      -0.154000
      2 C4           8.2540     1.4100    18.8690 ca         1 L4N       0.326900
      3 C5           7.9630     0.6230    20.0140 ca         1 L4N      -0.075000
      4 C6          10.3550     0.2330    20.8780 c          1 L4N       0.605100
      5 C7          10.9300    -0.5370    22.1070 c5         1 L4N      -0.146700
      6 C8          11.7650     0.4310    23.0220 c5         1 L4N      -0.058400
      7 C10         13.2830    -1.1130    22.1520 cx         1 L4N      -0.121000
      8 C13         11.9400    -1.6430    21.6320 c5         1 L4N      -0.039400
      9 O           10.9980     0.8400    20.0300 o          1 L4N      -0.576100
     10 C12         14.5760    -1.7400    21.7040 cx         1 L4N      -0.122900
     11 C11         14.0670    -1.9640    23.1210 cx         1 L4N      -0.122900
     12 C9          13.1870     0.3880    22.4040 c5         1 L4N      -0.045400
     13 C1           6.6090     0.3280    20.2940 ca         1 L4N      -0.089300
     14 C            6.2010    -0.5100    21.5020 c3         1 L4N      -0.050800
     15 N            7.3020     1.8910    18.0330 nb         1 L4N      -0.645000
     16 C3           6.0130     1.6020    18.3120 ca         1 L4N       0.312900
     17 C2           5.6270     0.8320    19.4210 ca         1 L4N      -0.142000
     18 H1           8.6060    -0.4200    21.6650 hn         1 L4N       0.150000
     19 H3          10.1100    -0.9840    22.6820 hc         1 L4N       0.053700
     20 H4          11.3530     1.4470    23.0560 hc         1 L4N       0.055700
     21 H5          11.7850     0.0640    24.0550 hc         1 L4N       0.055700
     22 H6          11.9430    -1.7620    20.5420 hc         1 L4N       0.054700
     23 H7          11.6880    -2.6230    22.0530 hc         1 L4N       0.054700
     24 H8          14.5260    -2.5760    21.0100 hc         1 L4N       0.071950
     25 H9          15.4390    -1.0910    21.5730 hc         1 L4N       0.071950
     26 H10         13.6880    -2.9520    23.3690 hc         1 L4N       0.071950
     27 H11         14.5960    -1.4670    23.9310 hc         1 L4N       0.071950
     28 H12         13.9520     0.7720    23.0890 hc         1 L4N       0.053700
     29 H13         13.2550     0.9670    21.4750 hc         1 L4N       0.053700
     30 H14          6.6440    -1.5120    21.4560 hc         1 L4N       0.045700
     31 H15          6.5250    -0.0390    22.4380 hc         1 L4N       0.045700
     32 H16          5.1130    -0.6360    21.5600 hc         1 L4N       0.045700
     33 H17          5.2660     1.9990    17.6260 h4         1 L4N       0.021100
     34 H18          4.5730     0.6330    19.5910 ha         1 L4N       0.120000
     35 H2           9.2720     1.6740    18.5970 h4         1 L4N       0.047100
@<TRIPOS>BOND
     1     1     3 1   
     2     1     4 1   
     3     1    18 1   
     4     2     3 ar  
     5     2    15 ar  
     6     2    35 1   
     7     3    13 ar  
     8     4     5 1   
     9     4     9 2   
    10     5     6 1   
    11     5     8 1   
    12     5    19 1   
    13     6    12 1   
    14     6    20 1   
    15     6    21 1   
    16     7     8 1   
    17     7    10 1   
    18     7    11 1   
    19     7    12 1   
    20     8    22 1   
    21     8    23 1   
    22    10    11 1   
    23    10    24 1   
    24    10    25 1   
    25    11    26 1   
    26    11    27 1   
    27    12    28 1   
    28    12    29 1   
    29    13    14 1   
    30    13    17 ar  
    31    14    30 1   
    32    14    31 1   
    33    14    32 1   
    34    15    16 ar  
    35    16    17 ar  
    36    16    33 1   
    37    17    34 1   
@<TRIPOS>SUBSTRUCTURE
     1 L4N         1 TEMP              0 ****  ****    0 ROOT
