@<TRIPOS>MOLECULE
L4N
   35    37     1     0     0
SMALL
abcg2


@<TRIPOS>ATOM
      1 N1           8.9760     0.0940    20.9310 ns         1 L4N      -0.154000
      2 C4           8.2300     1.1780    18.8600 ca         1 L4N       0.326900
      3 C5           7.9600     0.4890    20.0450 ca         1 L4N      -0.075000
      4 C6          10.1990     0.6740    21.1270 c          1 L4N       0.605100
      5 C7          11.0760    -0.0660    22.1170 c5         1 L4N      -0.146700
      6 C8          12.0990     0.8420    22.8520 c5         1 L4N      -0.058400
      7 C10         13.2480    -1.1260    22.1110 cx         1 L4N      -0.121000
      8 C13         11.9260    -1.1380    21.3710 c5         1 L4N      -0.039400
      9 O           10.5720     1.6720    20.5210 o          1 L4N      -0.576100
     10 C12         14.3390    -2.1040    21.8220 cx         1 L4N      -0.122900
     11 C11         13.5600    -2.1990    23.1170 cx         1 L4N      -0.122900
     12 C9          13.4930     0.3310    22.4440 c5         1 L4N      -0.045400
     13 C1           6.6310     0.1510    20.3470 ca         1 L4N      -0.089300
     14 C            6.2740    -0.5940    21.5990 c3         1 L4N      -0.050800
     15 N            7.2820     1.5500    17.9980 nb         1 L4N      -0.645000
     16 C3           6.0170     1.2360    18.2870 ca         1 L4N       0.312900
     17 C2           5.6580     0.5420    19.4340 ca         1 L4N      -0.142000
     18 H1           8.7520    -0.6700    21.5500 hn         1 L4N       0.150000
     19 H3          10.4390    -0.5680    22.8460 hc         1 L4N       0.053700
     20 H4          11.9530     1.8910    22.5990 hc         1 L4N       0.055700
     21 H5          11.9580     0.7350    23.9280 hc         1 L4N       0.055700
     22 H6          12.0850    -0.8290    20.3340 hc         1 L4N       0.054700
     23 H7          11.4440    -2.1150    21.3600 hc         1 L4N       0.054700
     24 H8          14.1560    -2.8610    21.0690 hc         1 L4N       0.071950
     25 H9          15.3630    -1.7540    21.8710 hc         1 L4N       0.071950
     26 H10         12.8590    -3.0170    23.2260 hc         1 L4N       0.071950
     27 H11         14.0630    -1.9050    24.0310 hc         1 L4N       0.071950
     28 H12         14.2410     0.4680    23.2260 hc         1 L4N       0.053700
     29 H13         13.8410     0.8580    21.5510 hc         1 L4N       0.053700
     30 H14          6.7240    -1.5910    21.6090 hc         1 L4N       0.045700
     31 H15          6.6360    -0.0670    22.4860 hc         1 L4N       0.045700
     32 H16          5.1950    -0.7110    21.6820 hc         1 L4N       0.045700
     33 H17          5.2610     1.5470    17.5740 h4         1 L4N       0.021100
     34 H18          4.6180     0.3080    19.6220 ha         1 L4N       0.120000
     35 H2           9.2480     1.4340    18.6100 h4         1 L4N       0.047100
@<TRIPOS>BOND
     1     1     3 1   
     2     1     4 1   
     3     1    18 1   
     4     2     3 ar  
     5     2    15 ar  
     6     2    35 1   
     7     3    13 ar  
     8     4     5 1   
     9     4     9 2   
    10     5     6 1   
    11     5     8 1   
    12     5    19 1   
    13     6    12 1   
    14     6    20 1   
    15     6    21 1   
    16     7     8 1   
    17     7    10 1   
    18     7    11 1   
    19     7    12 1   
    20     8    22 1   
    21     8    23 1   
    22    10    11 1   
    23    10    24 1   
    24    10    25 1   
    25    11    26 1   
    26    11    27 1   
    27    12    28 1   
    28    12    29 1   
    29    13    14 1   
    30    13    17 ar  
    31    14    30 1   
    32    14    31 1   
    33    14    32 1   
    34    15    16 ar  
    35    16    17 ar  
    36    16    33 1   
    37    17    34 1   
@<TRIPOS>SUBSTRUCTURE
     1 L4N         1 TEMP              0 ****  ****    0 ROOT
