@<TRIPOS>MOLECULE
L4P
  149   148     1     0     0
SMALL
bcc


@<TRIPOS>ATOM
      1 C1          -8.5440    19.1040     5.7240 c3         1 L4P       0.141400
      2 C2          -7.0820    19.4230     5.9620 c3         1 L4P       0.141100
      3 C3          -6.8470    20.9260     6.0880 c3         1 L4P       0.174400
      4 C4          -4.4930    22.1150     3.3450 c3         1 L4P       0.160400
      5 C5          -3.0010    22.3920     3.2600 c3         1 L4P       0.110100
      6 C6          -2.4000    21.6240     2.0950 c3         1 L4P       0.131400
      7 O1          -8.6820    17.7240     5.5210 os         1 L4P      -0.416600
      8 O2          -6.6890    18.7680     7.1440 os         1 L4P      -0.421600
      9 O3          -7.1530    21.5400     4.8510 os         1 L4P      -0.581200
     10 O4          -5.0180    22.8570     4.4300 os         1 L4P      -0.587200
     11 O5          -2.7430    23.7640     3.0720 oh         1 L4P      -0.601800
     12 O6          -1.0060    21.7710     1.9840 oh         1 L4P      -0.590800
     13 O1P         -6.8150    23.9140     5.7940 o          1 L4P      -0.806500
     14 O2P         -7.2310    23.4450     3.2460 o          1 L4P      -0.806500
     15 P1          -6.6430    23.0760     4.5690 p5         1 L4P       1.393800
     16 C11        -10.0140    17.3290     5.2870 c3         1 L4P       0.143400
     17 C12        -10.0590    15.8190     5.1510 c3         1 L4P      -0.078400
     18 C13        -11.4400    15.2840     4.7610 c3         1 L4P      -0.056700
     19 C14        -12.5010    15.5960     5.8160 c3         1 L4P      -0.087100
     20 C15        -11.3880    13.7870     4.4370 c3         1 L4P      -0.069400
     21 C16        -11.0690    12.8640     5.6110 c3         1 L4P      -0.075400
     22 C17        -10.9470    11.4100     5.1690 c3         1 L4P      -0.075400
     23 C18        -10.7860    10.3880     6.2970 c3         1 L4P      -0.058700
     24 C19         -9.5350    10.6490     7.1300 c3         1 L4P      -0.086100
     25 C20        -10.7860     8.9780     5.6980 c3         1 L4P      -0.073400
     26 C21        -10.7740     7.8250     6.6990 c3         1 L4P      -0.069400
     27 C22        -11.9500     7.8150     7.6720 c3         1 L4P      -0.070400
     28 C23        -13.3510     7.7180     7.0580 c3         1 L4P      -0.058700
     29 C24        -14.3910     7.8650     8.1670 c3         1 L4P      -0.088100
     30 C25        -13.5870     6.4100     6.2810 c3         1 L4P      -0.071400
     31 C26        -13.2730     6.4570     4.7880 c3         1 L4P      -0.077400
     32 C27        -13.5840     5.1380     4.0920 c3         1 L4P      -0.069400
     33 C28        -13.2790     5.0930     2.5900 c3         1 L4P      -0.057700
     34 C29        -14.1460     6.0640     1.7940 c3         1 L4P      -0.087100
     35 C30        -11.7990     5.3200     2.2910 c3         1 L4P      -0.087100
     36 C41         -5.3060    18.5150     7.2690 c3         1 L4P       0.145400
     37 C42         -5.0990    17.4730     8.3520 c3         1 L4P      -0.080400
     38 C43         -3.6220    17.1970     8.6420 c3         1 L4P      -0.056700
     39 C44         -2.9130    16.5530     7.4510 c3         1 L4P      -0.086100
     40 C45         -3.4440    16.3720     9.9200 c3         1 L4P      -0.068400
     41 C46         -4.0010    14.9520     9.8750 c3         1 L4P      -0.075400
     42 C47         -3.8100    14.2250    11.2010 c3         1 L4P      -0.074400
     43 C48         -4.1670    12.7370    11.1840 c3         1 L4P      -0.058700
     44 C49         -5.6340    12.5100    10.8300 c3         1 L4P      -0.086100
     45 C50         -3.8040    12.1070    12.5310 c3         1 L4P      -0.072400
     46 C51         -3.9680    10.5910    12.6240 c3         1 L4P      -0.068400
     47 C52         -3.1850     9.7920    11.5840 c3         1 L4P      -0.070400
     48 C53         -1.6730    10.0370    11.5370 c3         1 L4P      -0.059700
     49 C54         -1.0690     9.2550    10.3730 c3         1 L4P      -0.088100
     50 C55         -0.9940     9.7030    12.8670 c3         1 L4P      -0.072400
     51 C56          0.5020     9.9980    12.8960 c3         1 L4P      -0.076400
     52 C57          1.1090     9.8090    14.2830 c3         1 L4P      -0.069400
     53 C58          2.6190    10.0520    14.3820 c3         1 L4P      -0.057700
     54 C59          3.4230     9.0400    13.5700 c3         1 L4P      -0.086600
     55 C60          3.0020    11.4780    13.9970 c3         1 L4P      -0.086600
     56 H12         -8.9020    19.6700     4.8540 h1         1 L4P       0.043200
     57 H11         -9.1400    19.4380     6.5880 h1         1 L4P       0.043200
     58 H2          -6.4960    19.0500     5.1070 h1         1 L4P       0.045700
     59 H32         -5.8030    21.1010     6.3690 h1         1 L4P       0.031200
     60 H31         -7.4700    21.3320     6.8930 h1         1 L4P       0.031200
     61 H42         -4.6620    21.0420     3.4900 h1         1 L4P       0.030200
     62 H41         -4.9760    22.4040     2.4040 h1         1 L4P       0.030200
     63 H5          -2.5330    22.0320     4.1910 h1         1 L4P       0.019700
     64 H62         -2.8310    21.9900     1.1600 h1         1 L4P       0.043700
     65 H61         -2.6900    20.5700     2.1910 h1         1 L4P       0.043700
     66 H5O         -3.1860    24.2440     3.7790 ho         1 L4P       0.428000
     67 H6O         -0.5990    21.3960     2.7710 ho         1 L4P       0.389000
     68 H112       -10.6590    17.6660     6.1100 h1         1 L4P       0.017200
     69 H111       -10.4000    17.8030     4.3710 h1         1 L4P       0.017200
     70 H122        -9.3350    15.5170     4.3870 hc         1 L4P       0.049700
     71 H121        -9.7340    15.3660     6.0920 hc         1 L4P       0.049700
     72 H13        -11.7350    15.7920     3.8340 hc         1 L4P       0.044700
     73 H143       -13.4530    15.1270     5.5590 hc         1 L4P       0.030700
     74 H142       -12.2050    15.2300     6.8010 hc         1 L4P       0.030700
     75 H141       -12.6830    16.6670     5.9070 hc         1 L4P       0.030700
     76 H152       -12.3520    13.4910     4.0100 hc         1 L4P       0.034200
     77 H151       -10.6450    13.6250     3.6480 hc         1 L4P       0.034200
     78 H162       -11.8510    12.9450     6.3740 hc         1 L4P       0.041700
     79 H161       -10.1400    13.1840     6.0890 hc         1 L4P       0.041700
     80 H172       -10.1030    11.3120     4.4760 hc         1 L4P       0.034200
     81 H171       -11.8410    11.1440     4.5920 hc         1 L4P       0.034200
     82 H18        -11.6570    10.4860     6.9580 hc         1 L4P       0.044700
     83 H193        -8.6350    10.5910     6.5110 hc         1 L4P       0.032033
     84 H192        -9.5530    11.6380     7.5900 hc         1 L4P       0.032033
     85 H191        -9.4280     9.9250     7.9390 hc         1 L4P       0.032033
     86 H202        -9.9180     8.8810     5.0350 hc         1 L4P       0.036200
     87 H201       -11.6640     8.8850     5.0510 hc         1 L4P       0.036200
     88 H212       -10.7410     6.8800     6.1490 hc         1 L4P       0.036200
     89 H211        -9.8460     7.8460     7.2780 hc         1 L4P       0.036200
     90 H222       -11.8240     6.9790     8.3690 hc         1 L4P       0.035700
     91 H221       -11.9050     8.7200     8.2890 hc         1 L4P       0.035700
     92 H23        -13.4830     8.5560     6.3620 hc         1 L4P       0.050700
     93 H243       -15.4050     7.8770     7.7640 hc         1 L4P       0.031033
     94 H242       -14.3260     7.0310     8.8700 hc         1 L4P       0.031033
     95 H241       -14.2470     8.7870     8.7340 hc         1 L4P       0.031033
     96 H252       -14.6390     6.1210     6.3860 hc         1 L4P       0.033200
     97 H251       -13.0160     5.5990     6.7500 hc         1 L4P       0.033200
     98 H262       -13.8500     7.2690     4.3320 hc         1 L4P       0.041700
     99 H261       -12.2240     6.7140     4.6320 hc         1 L4P       0.041700
    100 H272       -13.0200     4.3380     4.5860 hc         1 L4P       0.033700
    101 H271       -14.6420     4.8950     4.2420 hc         1 L4P       0.033700
    102 H28        -13.5290     4.0810     2.2530 hc         1 L4P       0.038700
    103 H293       -13.9990     5.9320     0.7200 hc         1 L4P       0.031700
    104 H292       -15.2080     5.9150     2.0020 hc         1 L4P       0.031700
    105 H291       -13.9070     7.1040     2.0270 hc         1 L4P       0.031700
    106 H303       -11.5810     5.1340     1.2380 hc         1 L4P       0.031700
    107 H302       -11.4970     6.3470     2.5060 hc         1 L4P       0.031700
    108 H301       -11.1640     4.6580     2.8830 hc         1 L4P       0.031700
    109 H412        -4.9000    18.1660     6.3110 h1         1 L4P       0.021200
    110 H411        -4.7550    19.4290     7.5330 h1         1 L4P       0.021200
    111 H422        -5.5840    17.8220     9.2700 hc         1 L4P       0.049200
    112 H421        -5.6060    16.5490     8.0580 hc         1 L4P       0.049200
    113 H43         -3.1410    18.1650     8.8320 hc         1 L4P       0.045700
    114 H443        -1.8880    16.2790     7.7070 hc         1 L4P       0.030700
    115 H442        -3.4260    15.6470     7.1250 hc         1 L4P       0.030700
    116 H441        -2.8620    17.2250     6.5940 hc         1 L4P       0.030700
    117 H452        -2.3750    16.3210    10.1560 hc         1 L4P       0.033700
    118 H451        -3.9100    16.9100    10.7530 hc         1 L4P       0.033700
    119 H462        -3.5040    14.3830     9.0820 hc         1 L4P       0.041700
    120 H461        -5.0620    14.9780     9.6130 hc         1 L4P       0.041700
    121 H472        -4.3980    14.7260    11.9800 hc         1 L4P       0.034200
    122 H471        -2.7620    14.3260    11.5070 hc         1 L4P       0.034200
    123 H48         -3.5540    12.2650    10.4050 hc         1 L4P       0.044700
    124 H493        -6.2890    13.0010    11.5550 hc         1 L4P       0.031700
    125 H492        -5.8790    12.9030     9.8440 hc         1 L4P       0.031700
    126 H491        -5.8910    11.4490    10.8200 hc         1 L4P       0.031700
    127 H502        -4.4120    12.5760    13.3130 hc         1 L4P       0.036200
    128 H501        -2.7680    12.3730    12.7680 hc         1 L4P       0.036200
    129 H512        -3.6800    10.2750    13.6300 hc         1 L4P       0.034700
    130 H511        -5.0250    10.3270    12.5340 hc         1 L4P       0.034700
    131 H522        -3.3610     8.7250    11.7590 hc         1 L4P       0.036700
    132 H521        -3.5960     9.9990    10.5900 hc         1 L4P       0.036700
    133 H53         -1.5000    11.1030    11.3400 hc         1 L4P       0.049700
    134 H543        -0.0070     9.4650    10.2410 hc         1 L4P       0.030700
    135 H542        -1.1780     8.1780    10.5250 hc         1 L4P       0.030700
    136 H541        -1.5690     9.5080     9.4360 hc         1 L4P       0.030700
    137 H552        -1.1640     8.6460    13.1060 hc         1 L4P       0.036200
    138 H551        -1.4720    10.2730    13.6700 hc         1 L4P       0.036200
    139 H562         1.0200     9.3560    12.1790 hc         1 L4P       0.039200
    140 H561         0.6650    11.0260    12.5550 hc         1 L4P       0.039200
    141 H572         0.6000    10.4770    14.9860 hc         1 L4P       0.034700
    142 H571         0.8950     8.7920    14.6300 hc         1 L4P       0.034700
    143 H58          2.8870     9.9110    15.4360 hc         1 L4P       0.039700
    144 H593         4.4940     9.1540    13.7520 hc         1 L4P       0.031367
    145 H592         3.1520     8.0140    13.8280 hc         1 L4P       0.031367
    146 H591         3.2640     9.1640    12.4970 hc         1 L4P       0.031367
    147 H603         4.0610    11.6630    14.1880 hc         1 L4P       0.031367
    148 H602         2.8270    11.6650    12.9360 hc         1 L4P       0.031367
    149 H601         2.4300    12.2160    14.5620 hc         1 L4P       0.031367
@<TRIPOS>BOND
     1     1     2 1   
     2     1     7 1   
     3     1    56 1   
     4     1    57 1   
     5     2     3 1   
     6     2     8 1   
     7     2    58 1   
     8     3     9 1   
     9     3    59 1   
    10     3    60 1   
    11     4     5 1   
    12     4    10 1   
    13     4    61 1   
    14     4    62 1   
    15     5     6 1   
    16     5    11 1   
    17     5    63 1   
    18     6    12 1   
    19     6    64 1   
    20     6    65 1   
    21     7    16 1   
    22     8    36 1   
    23     9    15 1   
    24    10    15 1   
    25    11    66 1   
    26    12    67 1   
    27    13    15 1   
    28    14    15 1   
    29    16    17 1   
    30    16    68 1   
    31    16    69 1   
    32    17    18 1   
    33    17    70 1   
    34    17    71 1   
    35    18    19 1   
    36    18    20 1   
    37    18    72 1   
    38    19    73 1   
    39    19    74 1   
    40    19    75 1   
    41    20    21 1   
    42    20    76 1   
    43    20    77 1   
    44    21    22 1   
    45    21    78 1   
    46    21    79 1   
    47    22    23 1   
    48    22    80 1   
    49    22    81 1   
    50    23    24 1   
    51    23    25 1   
    52    23    82 1   
    53    24    83 1   
    54    24    84 1   
    55    24    85 1   
    56    25    26 1   
    57    25    86 1   
    58    25    87 1   
    59    26    27 1   
    60    26    88 1   
    61    26    89 1   
    62    27    28 1   
    63    27    90 1   
    64    27    91 1   
    65    28    29 1   
    66    28    30 1   
    67    28    92 1   
    68    29    93 1   
    69    29    94 1   
    70    29    95 1   
    71    30    31 1   
    72    30    96 1   
    73    30    97 1   
    74    31    32 1   
    75    31    98 1   
    76    31    99 1   
    77    32    33 1   
    78    32   100 1   
    79    32   101 1   
    80    33    34 1   
    81    33    35 1   
    82    33   102 1   
    83    34   103 1   
    84    34   104 1   
    85    34   105 1   
    86    35   106 1   
    87    35   107 1   
    88    35   108 1   
    89    36    37 1   
    90    36   109 1   
    91    36   110 1   
    92    37    38 1   
    93    37   111 1   
    94    37   112 1   
    95    38    39 1   
    96    38    40 1   
    97    38   113 1   
    98    39   114 1   
    99    39   115 1   
   100    39   116 1   
   101    40    41 1   
   102    40   117 1   
   103    40   118 1   
   104    41    42 1   
   105    41   119 1   
   106    41   120 1   
   107    42    43 1   
   108    42   121 1   
   109    42   122 1   
   110    43    44 1   
   111    43    45 1   
   112    43   123 1   
   113    44   124 1   
   114    44   125 1   
   115    44   126 1   
   116    45    46 1   
   117    45   127 1   
   118    45   128 1   
   119    46    47 1   
   120    46   129 1   
   121    46   130 1   
   122    47    48 1   
   123    47   131 1   
   124    47   132 1   
   125    48    49 1   
   126    48    50 1   
   127    48   133 1   
   128    49   134 1   
   129    49   135 1   
   130    49   136 1   
   131    50    51 1   
   132    50   137 1   
   133    50   138 1   
   134    51    52 1   
   135    51   139 1   
   136    51   140 1   
   137    52    53 1   
   138    52   141 1   
   139    52   142 1   
   140    53    54 1   
   141    53    55 1   
   142    53   143 1   
   143    54   144 1   
   144    54   145 1   
   145    54   146 1   
   146    55   147 1   
   147    55   148 1   
   148    55   149 1   
@<TRIPOS>SUBSTRUCTURE
     1 L4P         1 TEMP              0 ****  ****    0 ROOT
