@<TRIPOS>MOLECULE
L4P
  149   148     1     0     0
SMALL
No Charge or Current Charge


@<TRIPOS>ATOM
      1 C1          -8.4120    19.1830     5.8060 c3         1 L4P       0.164600
      2 C2          -6.8970    19.4390     6.0270 c3         1 L4P       0.164300
      3 C3          -6.5790    20.9510     6.2100 c3         1 L4P       0.197600
      4 C4          -4.6500    22.2380     2.9230 c3         1 L4P       0.183600
      5 C5          -4.7610    20.6900     2.9360 c3         1 L4P       0.133300
      6 C6          -4.2670    20.0520     1.6120 c3         1 L4P       0.154600
      7 O1          -8.6090    17.7950     5.4610 os         1 L4P      -0.463000
      8 O2          -6.4920    18.7110     7.2170 os         1 L4P      -0.468000
      9 O3          -6.9590    21.6520     5.0180 os         1 L4P      -0.604400
     10 O4          -4.8890    22.7440     4.2540 os         1 L4P      -0.610400
     11 O5          -3.9870    20.1870     4.0390 oh         1 L4P      -0.664000
     12 O6          -4.2940    18.6240     1.7330 oh         1 L4P      -0.653000
     13 O1P         -6.3410    23.9260     6.0100 o          1 L4P      -0.806500
     14 O2P         -7.1440    23.8310     3.6780 o          1 L4P      -0.806500
     15 P1          -6.3790    23.1290     4.7490 p5         1 L4P       1.393800
     16 C11         -9.9800    17.4190     5.2630 c3         1 L4P       0.166600
     17 C12        -10.0050    15.9090     4.9410 c3         1 L4P      -0.078400
     18 C13        -11.4160    15.3450     4.6140 c3         1 L4P      -0.056700
     19 C14        -12.4000    15.4690     5.8050 c3         1 L4P      -0.087100
     20 C15        -11.3580    13.8950     4.0510 c3         1 L4P      -0.069400
     21 C16        -10.8120    12.8170     5.0210 c3         1 L4P      -0.075400
     22 C17        -10.7920    11.4030     4.3930 c3         1 L4P      -0.075400
     23 C18        -10.3740    10.2570     5.3590 c3         1 L4P      -0.058700
     24 C19         -8.9210    10.4240     5.8780 c3         1 L4P      -0.086100
     25 C20        -10.6000     8.8740     4.6780 c3         1 L4P      -0.073400
     26 C21        -10.3620     7.6190     5.5620 c3         1 L4P      -0.069400
     27 C22        -11.1790     7.5480     6.8770 c3         1 L4P      -0.070400
     28 C23        -12.7340     7.6690     6.7870 c3         1 L4P      -0.058700
     29 C24        -13.3150     7.8150     8.2150 c3         1 L4P      -0.088100
     30 C25        -13.4410     6.4930     6.0410 c3         1 L4P      -0.071400
     31 C26        -13.5210     6.6220     4.4990 c3         1 L4P      -0.077400
     32 C27        -14.3390     5.4810     3.8450 c3         1 L4P      -0.069400
     33 C28        -14.4560     5.5390     2.2950 c3         1 L4P      -0.057700
     34 C29        -15.2140     6.7910     1.7950 c3         1 L4P      -0.087100
     35 C30        -13.0930     5.3790     1.5820 c3         1 L4P      -0.087100
     36 C41         -5.0750    18.5740     7.4230 c3         1 L4P       0.168600
     37 C42         -4.8740    17.6330     8.6290 c3         1 L4P      -0.080400
     38 C43         -3.3900    17.4290     9.0460 c3         1 L4P      -0.056700
     39 C44         -2.5420    16.7690     7.9290 c3         1 L4P      -0.086100
     40 C45         -3.2530    16.6810    10.4030 c3         1 L4P      -0.068400
     41 C46         -3.7840    15.2240    10.4260 c3         1 L4P      -0.075400
     42 C47         -3.6030    14.5430    11.8040 c3         1 L4P      -0.074400
     43 C48         -4.0020    13.0410    11.8550 c3         1 L4P      -0.058700
     44 C49         -5.5080    12.8200    11.5550 c3         1 L4P      -0.086100
     45 C50         -3.5780    12.4190    13.2190 c3         1 L4P      -0.072400
     46 C51         -3.7810    10.8880    13.3760 c3         1 L4P      -0.068400
     47 C52         -3.0970     9.9970    12.3040 c3         1 L4P      -0.070400
     48 C53         -1.5630    10.1930    12.1080 c3         1 L4P      -0.059700
     49 C54         -1.0710     9.3330    10.9170 c3         1 L4P      -0.088100
     50 C55         -0.7550     9.9180    13.4110 c3         1 L4P      -0.072400
     51 C56          0.7650    10.1910    13.3060 c3         1 L4P      -0.076400
     52 C57          1.4950    10.0330    14.6630 c3         1 L4P      -0.069400
     53 C58          3.0290    10.2890    14.6400 c3         1 L4P      -0.057700
     54 C59          3.7960     9.2720    13.7630 c3         1 L4P      -0.086600
     55 C60          3.3890    11.7460    14.2650 c3         1 L4P      -0.086600
     56 H12         -8.7770    19.8270     4.9960 h1         1 L4P       0.043200
     57 H11         -8.9610    19.4430     6.7210 h1         1 L4P       0.043200
     58 H2          -6.3530    19.0680     5.1480 h1         1 L4P       0.045700
     59 H32         -5.5080    21.0850     6.4040 h1         1 L4P       0.031200
     60 H31         -7.1340    21.3360     7.0760 h1         1 L4P       0.031200
     61 H42         -5.3630    22.6500     2.1970 h1         1 L4P       0.030200
     62 H41         -3.6430    22.5260     2.5930 h1         1 L4P       0.030200
     63 H5          -5.8160    20.4200     3.0680 h1         1 L4P       0.019700
     64 H62         -3.2460    20.3990     1.4030 h1         1 L4P       0.043700
     65 H61         -4.9100    20.3830     0.7840 h1         1 L4P       0.043700
     66 H5O         -3.9510    20.9450     4.6680 ho         1 L4P       0.467000
     67 H6O         -4.0480    18.4570     2.6720 ho         1 L4P       0.428000
     68 H112       -10.5670    17.6190     6.1680 h1         1 L4P       0.017200
     69 H111       -10.4190    17.9820     4.4280 h1         1 L4P       0.017200
     70 H122        -9.3430    15.7280     4.0860 hc         1 L4P       0.049700
     71 H121        -9.5790    15.3670     5.7940 hc         1 L4P       0.049700
     72 H13        -11.8250    15.9650     3.8050 hc         1 L4P       0.044700
     73 H143       -13.3620    15.0000     5.5630 hc         1 L4P       0.030700
     74 H142       -11.9980    14.9850     6.7030 hc         1 L4P       0.030700
     75 H141       -12.5970    16.5200     6.0440 hc         1 L4P       0.030700
     76 H152       -12.3670    13.6040     3.7330 hc         1 L4P       0.034200
     77 H151       -10.7430    13.8960     3.1430 hc         1 L4P       0.034200
     78 H162       -11.4260    12.7930     5.9290 hc         1 L4P       0.041700
     79 H161        -9.7960    13.0920     5.3230 hc         1 L4P       0.041700
     80 H172       -10.1230    11.4050     3.5230 hc         1 L4P       0.034200
     81 H171       -11.7980    11.1880     4.0110 hc         1 L4P       0.034200
     82 H18        -11.0420    10.3150     6.2270 hc         1 L4P       0.044700
     83 H193        -8.2050    10.3920     5.0480 hc         1 L4P       0.032033
     84 H192        -8.7930    11.3750     6.4060 hc         1 L4P       0.032033
     85 H191        -8.6600     9.6330     6.5890 hc         1 L4P       0.032033
     86 H202        -9.9460     8.8030     3.8000 hc         1 L4P       0.036200
     87 H201       -11.6240     8.8380     4.2900 hc         1 L4P       0.036200
     88 H212       -10.5480     6.7170     4.9700 hc         1 L4P       0.036200
     89 H211        -9.2970     7.5630     5.8180 hc         1 L4P       0.036200
     90 H222       -10.9320     6.6050     7.3800 hc         1 L4P       0.035700
     91 H221       -10.8060     8.3370     7.5410 hc         1 L4P       0.035700
     92 H23        -12.9790     8.6010     6.2630 hc         1 L4P       0.050700
     93 H243       -14.3980     7.9850     8.1810 hc         1 L4P       0.031033
     94 H242       -13.1280     6.9110     8.8080 hc         1 L4P       0.031033
     95 H241       -12.8630     8.6680     8.7360 hc         1 L4P       0.031033
     96 H252       -14.4710     6.4130     6.4080 hc         1 L4P       0.033200
     97 H251       -12.9520     5.5480     6.3060 hc         1 L4P       0.033200
     98 H262       -13.9770     7.5870     4.2510 hc         1 L4P       0.041700
     99 H261       -12.5170     6.6210     4.0700 hc         1 L4P       0.041700
    100 H272       -13.8910     4.5200     4.1260 hc         1 L4P       0.033700
    101 H271       -15.3500     5.4820     4.2710 hc         1 L4P       0.033700
    102 H28        -15.0620     4.6720     2.0030 hc         1 L4P       0.038700
    103 H293       -15.4030     6.7200     0.7180 hc         1 L4P       0.031700
    104 H292       -16.1810     6.8880     2.3020 hc         1 L4P       0.031700
    105 H291       -14.6350     7.7050     1.9760 hc         1 L4P       0.031700
    106 H303       -13.2360     5.2730     0.5000 hc         1 L4P       0.031700
    107 H302       -12.4490     6.2510     1.7520 hc         1 L4P       0.031700
    108 H301       -12.5680     4.4860     1.9420 hc         1 L4P       0.031700
    109 H412        -4.5980    18.1440     6.5320 h1         1 L4P       0.021200
    110 H411        -4.6090    19.5430     7.6390 h1         1 L4P       0.021200
    111 H422        -5.4300    18.0420     9.4820 hc         1 L4P       0.049200
    112 H421        -5.3270    16.6630     8.3900 hc         1 L4P       0.049200
    113 H43         -2.9670    18.4290     9.2090 hc         1 L4P       0.045700
    114 H443        -1.5220    16.5750     8.2810 hc         1 L4P       0.030700
    115 H442        -2.9810    15.8180     7.6070 hc         1 L4P       0.030700
    116 H441        -2.4690    17.4240     7.0530 hc         1 L4P       0.030700
    117 H452        -2.1950    16.6750    10.6930 hc         1 L4P       0.033700
    118 H451        -3.7760    17.2580    11.1760 hc         1 L4P       0.033700
    119 H462        -3.2610    14.6300     9.6670 hc         1 L4P       0.041700
    120 H461        -4.8460    15.2290    10.1610 hc         1 L4P       0.041700
    121 H472        -4.1800    15.0970    12.5570 hc         1 L4P       0.034200
    122 H471        -2.5480    14.6350    12.0920 hc         1 L4P       0.034200
    123 H48         -3.4330    12.5350    11.0650 hc         1 L4P       0.044700
    124 H493        -6.1330    13.3230    12.3030 hc         1 L4P       0.031700
    125 H492        -5.7790    13.2040    10.5660 hc         1 L4P       0.031700
    126 H491        -5.7610    11.7540    11.5570 hc         1 L4P       0.031700
    127 H502        -4.1310    12.9220    14.0210 hc         1 L4P       0.036200
    128 H501        -2.5200    12.6460    13.4010 hc         1 L4P       0.036200
    129 H512        -3.4280    10.5910    14.3710 hc         1 L4P       0.034700
    130 H511        -4.8550    10.6660    13.3790 hc         1 L4P       0.034700
    131 H522        -3.2870     8.9480    12.5600 hc         1 L4P       0.036700
    132 H521        -3.6020    10.1660    11.3450 hc         1 L4P       0.036700
    133 H53         -1.3940    11.2400    11.8280 hc         1 L4P       0.049700
    134 H543        -0.0370     9.5780    10.6490 hc         1 L4P       0.030700
    135 H542        -1.1240     8.2650    11.1580 hc         1 L4P       0.030700
    136 H541        -1.6860     9.5140    10.0270 hc         1 L4P       0.030700
    137 H552        -0.9140     8.8770    13.7220 hc         1 L4P       0.036200
    138 H551        -1.1480    10.5480    14.2160 hc         1 L4P       0.036200
    139 H562         1.2080     9.5000    12.5800 hc         1 L4P       0.039200
    140 H561         0.9150    11.2070    12.9230 hc         1 L4P       0.039200
    141 H572         1.0390    10.7160    15.3910 hc         1 L4P       0.034700
    142 H571         1.3160     9.0190    15.0430 hc         1 L4P       0.034700
    143 H58          3.3780    10.1380    15.6690 hc         1 L4P       0.039700
    144 H593         4.8780     9.3940    13.8920 hc         1 L4P       0.031367
    145 H592         3.5370     8.2440    14.0440 hc         1 L4P       0.031367
    146 H591         3.5660     9.4080    12.7000 hc         1 L4P       0.031367
    147 H603         4.4620    11.9230    14.4030 hc         1 L4P       0.031367
    148 H602         3.1430    11.9600    13.2180 hc         1 L4P       0.031367
    149 H601         2.8450    12.4560    14.9000 hc         1 L4P       0.031367
@<TRIPOS>BOND
     1     1     2 1   
     2     1     7 1   
     3     1    56 1   
     4     1    57 1   
     5     2     3 1   
     6     2     8 1   
     7     2    58 1   
     8     3     9 1   
     9     3    59 1   
    10     3    60 1   
    11     4     5 1   
    12     4    10 1   
    13     4    61 1   
    14     4    62 1   
    15     5     6 1   
    16     5    11 1   
    17     5    63 1   
    18     6    12 1   
    19     6    64 1   
    20     6    65 1   
    21     7    16 1   
    22     8    36 1   
    23     9    15 1   
    24    10    15 1   
    25    11    66 1   
    26    12    67 1   
    27    13    15 1   
    28    14    15 1   
    29    16    17 1   
    30    16    68 1   
    31    16    69 1   
    32    17    18 1   
    33    17    70 1   
    34    17    71 1   
    35    18    19 1   
    36    18    20 1   
    37    18    72 1   
    38    19    73 1   
    39    19    74 1   
    40    19    75 1   
    41    20    21 1   
    42    20    76 1   
    43    20    77 1   
    44    21    22 1   
    45    21    78 1   
    46    21    79 1   
    47    22    23 1   
    48    22    80 1   
    49    22    81 1   
    50    23    24 1   
    51    23    25 1   
    52    23    82 1   
    53    24    83 1   
    54    24    84 1   
    55    24    85 1   
    56    25    26 1   
    57    25    86 1   
    58    25    87 1   
    59    26    27 1   
    60    26    88 1   
    61    26    89 1   
    62    27    28 1   
    63    27    90 1   
    64    27    91 1   
    65    28    29 1   
    66    28    30 1   
    67    28    92 1   
    68    29    93 1   
    69    29    94 1   
    70    29    95 1   
    71    30    31 1   
    72    30    96 1   
    73    30    97 1   
    74    31    32 1   
    75    31    98 1   
    76    31    99 1   
    77    32    33 1   
    78    32   100 1   
    79    32   101 1   
    80    33    34 1   
    81    33    35 1   
    82    33   102 1   
    83    34   103 1   
    84    34   104 1   
    85    34   105 1   
    86    35   106 1   
    87    35   107 1   
    88    35   108 1   
    89    36    37 1   
    90    36   109 1   
    91    36   110 1   
    92    37    38 1   
    93    37   111 1   
    94    37   112 1   
    95    38    39 1   
    96    38    40 1   
    97    38   113 1   
    98    39   114 1   
    99    39   115 1   
   100    39   116 1   
   101    40    41 1   
   102    40   117 1   
   103    40   118 1   
   104    41    42 1   
   105    41   119 1   
   106    41   120 1   
   107    42    43 1   
   108    42   121 1   
   109    42   122 1   
   110    43    44 1   
   111    43    45 1   
   112    43   123 1   
   113    44   124 1   
   114    44   125 1   
   115    44   126 1   
   116    45    46 1   
   117    45   127 1   
   118    45   128 1   
   119    46    47 1   
   120    46   129 1   
   121    46   130 1   
   122    47    48 1   
   123    47   131 1   
   124    47   132 1   
   125    48    49 1   
   126    48    50 1   
   127    48   133 1   
   128    49   134 1   
   129    49   135 1   
   130    49   136 1   
   131    50    51 1   
   132    50   137 1   
   133    50   138 1   
   134    51    52 1   
   135    51   139 1   
   136    51   140 1   
   137    52    53 1   
   138    52   141 1   
   139    52   142 1   
   140    53    54 1   
   141    53    55 1   
   142    53   143 1   
   143    54   144 1   
   144    54   145 1   
   145    54   146 1   
   146    55   147 1   
   147    55   148 1   
   148    55   149 1   
@<TRIPOS>SUBSTRUCTURE
     1 L4P         1 TEMP              0 ****  ****    0 ROOT
