@<TRIPOS>MOLECULE
L4Q
   35    35     1     0     0
SMALL
bcc


@<TRIPOS>ATOM
      1 C4          -2.8260     6.4730    14.4380 c3         1 L4Q      -0.072400
      2 C5          -3.6120     5.4990    13.5570 c3         1 L4Q      -0.042100
      3 C6          -4.2010     4.3680    14.3480 ca         1 L4Q      -0.018300
      4 C7          -3.3950     3.3210    14.7980 ca         1 L4Q      -0.150000
      5 C8          -3.9190     2.2930    15.5600 ca         1 L4Q      -0.024500
      6 C9          -5.2730     2.3100    15.8790 ca         1 L4Q      -0.277500
      7 C10         -6.0960     3.3380    15.4480 ca         1 L4Q      -0.024500
      8 C11         -5.5510     4.3600    14.6840 ca         1 L4Q      -0.150000
      9 N           -5.9900    -0.2300    15.7420 n8         1 L4Q      -0.890700
     10 C           -0.2380    10.8400    14.6170 c3         1 L4Q      -0.089100
     11 O           -7.2660     1.4000    17.3030 o          1 L4Q      -0.616300
     12 C1          -1.0710     9.8950    13.7620 c3         1 L4Q      -0.074400
     13 C2          -1.5020     8.6420    14.5140 c3         1 L4Q      -0.075400
     14 C3          -2.3240     7.6840    13.6620 c3         1 L4Q      -0.075400
     15 O1          -4.9670     0.5820    17.8510 o          1 L4Q      -0.616300
     16 S           -5.9410     0.9960    16.8510 sy         1 L4Q       1.267200
     17 H1          -3.4600     6.8080    15.2640 hc         1 L4Q       0.044700
     18 H2          -1.9800     5.9490    14.8940 hc         1 L4Q       0.044700
     19 H3          -4.4120     6.0390    13.0440 hc         1 L4Q       0.051200
     20 H4          -2.9530     5.1030    12.7800 hc         1 L4Q       0.051200
     21 H5          -2.3410     3.3090    14.5480 ha         1 L4Q       0.136500
     22 H6          -3.2770     1.4900    15.8980 ha         1 L4Q       0.154500
     23 H7          -7.1480     3.3530    15.6970 ha         1 L4Q       0.154500
     24 H8          -6.1920     5.1640    14.3420 ha         1 L4Q       0.136500
     25 H9          -6.0630    -1.1360    16.1960 hn         1 L4Q       0.416300
     26 H10         -6.7410    -0.1160    15.0690 hn         1 L4Q       0.416300
     27 H11          0.0380    11.7410    14.0690 hc         1 L4Q       0.032367
     28 H12         -0.7870    11.1510    15.5080 hc         1 L4Q       0.032367
     29 H13          0.6840    10.3600    14.9510 hc         1 L4Q       0.032367
     30 H14         -0.5020     9.6070    12.8720 hc         1 L4Q       0.036700
     31 H15         -1.9600    10.4180    13.3950 hc         1 L4Q       0.036700
     32 H16         -2.0820     8.9340    15.3960 hc         1 L4Q       0.038700
     33 H17         -0.6160     8.1230    14.8950 hc         1 L4Q       0.038700
     34 H18         -1.7260     7.3500    12.8070 hc         1 L4Q       0.037700
     35 H19         -3.1830     8.2180    13.2400 hc         1 L4Q       0.037700
@<TRIPOS>BOND
     1     1     2 1   
     2     1    14 1   
     3     1    17 1   
     4     1    18 1   
     5     2     3 1   
     6     2    19 1   
     7     2    20 1   
     8     3     4 ar  
     9     3     8 ar  
    10     4     5 ar  
    11     4    21 1   
    12     5     6 ar  
    13     5    22 1   
    14     6     7 ar  
    15     6    16 1   
    16     7     8 ar  
    17     7    23 1   
    18     8    24 1   
    19     9    16 1   
    20     9    25 1   
    21     9    26 1   
    22    10    12 1   
    23    10    27 1   
    24    10    28 1   
    25    10    29 1   
    26    11    16 2   
    27    12    13 1   
    28    12    30 1   
    29    12    31 1   
    30    13    14 1   
    31    13    32 1   
    32    13    33 1   
    33    14    34 1   
    34    14    35 1   
    35    15    16 2   
@<TRIPOS>SUBSTRUCTURE
     1 L4Q         1 TEMP              0 ****  ****    0 ROOT
