@<TRIPOS>MOLECULE
L4Q
   35    35     1     0     0
SMALL
No Charge or Current Charge


@<TRIPOS>ATOM
      1 C4          -2.8640     6.4940    14.4510 c3         1 L4Q      -0.072400
      2 C5          -3.5360     5.4210    13.5670 c3         1 L4Q      -0.042100
      3 C6          -4.1010     4.2730    14.3910 ca         1 L4Q      -0.018300
      4 C7          -3.3050     3.1510    14.6870 ca         1 L4Q      -0.132000
      5 C8          -3.8210     2.0910    15.4520 ca         1 L4Q      -0.006500
      6 C9          -5.1470     2.1470    15.9300 ca         1 L4Q      -0.277500
      7 C10         -5.9470     3.2710    15.6370 ca         1 L4Q      -0.006500
      8 C11         -5.4230     4.3270    14.8720 ca         1 L4Q      -0.132000
      9 N           -6.3650    -0.2140    15.7430 n8         1 L4Q      -1.001100
     10 C           -0.3580    10.9900    14.6000 c3         1 L4Q      -0.089100
     11 O           -7.0150     1.2200    17.6050 o          1 L4Q      -0.545500
     12 C1          -1.0270     9.9210    13.7150 c3         1 L4Q      -0.074400
     13 C2          -1.6100     8.7430    14.5260 c3         1 L4Q      -0.075400
     14 C3          -2.2810     7.6720    13.6390 c3         1 L4Q      -0.075400
     15 O1          -4.7250     0.0550    17.5610 o          1 L4Q      -0.545500
     16 S           -5.8060     0.7920    16.9060 sy         1 L4Q       1.125600
     17 H1          -3.6000     6.8780    15.1680 hc         1 L4Q       0.044700
     18 H2          -2.0620     6.0260    15.0350 hc         1 L4Q       0.044700
     19 H3          -4.3340     5.8880    12.9760 hc         1 L4Q       0.051200
     20 H4          -2.8040     5.0400    12.8440 hc         1 L4Q       0.051200
     21 H5          -2.2810     3.1000    14.3250 ha         1 L4Q       0.118500
     22 H6          -3.1900     1.2310    15.6690 ha         1 L4Q       0.136500
     23 H7          -6.9720     3.3340    16.0000 ha         1 L4Q       0.136500
     24 H8          -6.0460     5.1910    14.6530 ha         1 L4Q       0.118500
     25 H9          -7.3210    -0.3590    16.0580 hn         1 L4Q       0.471500
     26 H10         -6.4620     0.4110    14.9460 hn         1 L4Q       0.471500
     27 H11          0.0400    11.8040    13.9820 hc         1 L4Q       0.032367
     28 H12         -1.0800    11.4170    15.3060 hc         1 L4Q       0.032367
     29 H13          0.4720    10.5570    15.1720 hc         1 L4Q       0.032367
     30 H14         -0.2900     9.5390    12.9980 hc         1 L4Q       0.036700
     31 H15         -1.8270    10.3920    13.1310 hc         1 L4Q       0.036700
     32 H16         -2.3460     9.1290    15.2440 hc         1 L4Q       0.038700
     33 H17         -0.8080     8.2760    15.1110 hc         1 L4Q       0.038700
     34 H18         -1.5460     7.2860    12.9220 hc         1 L4Q       0.037700
     35 H19         -3.0840     8.1390    13.0550 hc         1 L4Q       0.037700
@<TRIPOS>BOND
     1     1     2 1   
     2     1    14 1   
     3     1    17 1   
     4     1    18 1   
     5     2     3 1   
     6     2    19 1   
     7     2    20 1   
     8     3     4 ar  
     9     3     8 ar  
    10     4     5 ar  
    11     4    21 1   
    12     5     6 ar  
    13     5    22 1   
    14     6     7 ar  
    15     6    16 1   
    16     7     8 ar  
    17     7    23 1   
    18     8    24 1   
    19     9    16 1   
    20     9    25 1   
    21     9    26 1   
    22    10    12 1   
    23    10    27 1   
    24    10    28 1   
    25    10    29 1   
    26    11    16 2   
    27    12    13 1   
    28    12    30 1   
    29    12    31 1   
    30    13    14 1   
    31    13    32 1   
    32    13    33 1   
    33    14    34 1   
    34    14    35 1   
    35    15    16 2   
@<TRIPOS>SUBSTRUCTURE
     1 L4Q         1 TEMP              0 ****  ****    0 ROOT
