@<TRIPOS>MOLECULE
L4S
   67    71     1     0     0
SMALL
bcc


@<TRIPOS>ATOM
      1 C10         -1.8410    -0.0380     0.9110 c          1 L4S       0.674100
      2 C13         -3.0830    -0.9540    -1.7530 c5         1 L4S      -0.082400
      3 C15         -5.4880    -1.3730    -2.0570 c5         1 L4S      -0.070400
      4 C17         -6.3290    -0.4280     0.1170 c          1 L4S       0.608700
      5 C21         -9.8600     0.7780     0.6670 ca         1 L4S      -0.197000
      6 C22        -10.0750     1.5150    -0.4790 ca         1 L4S      -0.051000
      7 C24         -7.8710     1.0070    -1.2540 ca         1 L4S      -0.041000
      8 C02          5.1750    -2.3570     2.2720 c5         1 L4S       0.118100
      9 C03          3.9620    -1.6770     1.6350 c5         1 L4S       0.133100
     10 C04          3.5190    -0.4450     2.4120 c3         1 L4S       0.029300
     11 C08          0.4660     0.7130     1.0120 cc         1 L4S       0.389200
     12 C11         -3.2170     0.3610     0.4380 c3         1 L4S      -0.148400
     13 C12         -3.8450    -0.7130    -0.4430 c5         1 L4S      -0.048700
     14 C14         -4.1270    -1.4660    -2.7670 c5         1 L4S      -0.077400
     15 C16         -5.2490    -0.3540    -0.9290 c5         1 L4S      -0.160700
     16 C18         -7.6140     0.2500    -0.1010 ca         1 L4S      -0.299600
     17 C19         -8.6350     0.1380     0.8720 ca         1 L4S       0.225100
     18 C23         -9.0820     1.6350    -1.4510 ca         1 L4S      -0.195000
     19 C27          1.1210    -0.2660     1.7160 cd         1 L4S      -0.262600
     20 C29          5.7240    -1.5320     0.1290 c5         1 L4S       0.320500
     21 C31          6.7230    -0.8020    -1.9420 cc         1 L4S       0.074600
     22 C32          7.2300     0.1140    -2.7880 cd         1 L4S      -0.429600
     23 C33          7.2610     1.4620    -2.3150 cd         1 L4S       0.786500
     24 C36          6.3150     0.8670    -0.2730 c          1 L4S       0.867900
     25 C38          6.3280    -1.7090     1.5180 c5         1 L4S      -0.161400
     26 N05          2.3860     0.2000     1.7840 na         1 L4S       0.118400
     27 N06          2.5060     1.3560     1.1740 nd         1 L4S      -0.150800
     28 N07          1.3490     1.6810     0.7020 nc         1 L4S      -0.410000
     29 N09         -0.8560     0.8470     0.6270 ns         1 L4S      -0.528400
     30 N30          6.2770    -0.4750    -0.7020 n          1 L4S      -0.390000
     31 N34          7.7480     2.4230    -3.0970 nv         1 L4S      -0.923800
     32 N35          6.8170     1.7910    -1.1190 nc         1 L4S      -0.769100
     33 O01          5.0670    -3.7370     2.0100 oh         1 L4S      -0.590800
     34 O20         -8.4800    -0.5600     1.9930 oh         1 L4S      -0.506100
     35 O26         -1.6270    -1.0780     1.5110 o          1 L4S      -0.591100
     36 O28          4.3420    -1.3360     0.3130 os         1 L4S      -0.385600
     37 O37          5.9080     1.1610     0.8410 o          1 L4S      -0.620500
     38 H1          -2.6470    -0.0140    -2.1030 hc         1 L4S       0.049700
     39 H2          -2.2570    -1.6530    -1.6150 hc         1 L4S       0.049700
     40 H3          -6.2970    -1.0820    -2.7270 hc         1 L4S       0.052700
     41 H4          -5.7590    -2.3380    -1.6220 hc         1 L4S       0.052700
     42 H5         -10.6330     0.6850     1.4190 ha         1 L4S       0.152000
     43 H6         -11.0300     2.0060    -0.6200 ha         1 L4S       0.134000
     44 H7          -7.1080     1.1080    -2.0140 ha         1 L4S       0.130000
     45 H8           5.2320    -2.1590     3.3490 h1         1 L4S       0.058700
     46 H9           3.1250    -2.3840     1.5870 h1         1 L4S       0.091700
     47 H10          3.2250    -0.7410     3.4200 h1         1 L4S       0.090200
     48 H11          4.3120     0.2960     2.4810 h1         1 L4S       0.090200
     49 H12         -3.8260     0.5200     1.3330 hc         1 L4S       0.064700
     50 H13         -3.1910     1.3110    -0.1020 hc         1 L4S       0.064700
     51 H14         -3.8970    -1.6480     0.1210 hc         1 L4S       0.091700
     52 H15         -4.1230    -0.8450    -3.6630 hc         1 L4S       0.045700
     53 H16         -3.9230    -2.4870    -3.0870 hc         1 L4S       0.045700
     54 H17         -5.2200     0.6500    -1.3630 hc         1 L4S       0.067700
     55 H18         -9.2570     2.2140    -2.3470 ha         1 L4S       0.138000
     56 H19          0.8130    -1.1950     2.1580 h4         1 L4S       0.205000
     57 H20          5.8810    -2.4500    -0.4460 h2         1 L4S       0.054700
     58 H21          6.6560    -1.8460    -2.2160 h4         1 L4S       0.148000
     59 H22          7.5860    -0.1650    -3.7670 ha         1 L4S       0.152000
     60 H23          6.5860    -0.7550     1.9720 hc         1 L4S       0.083200
     61 H24          7.2230    -2.3320     1.4950 hc         1 L4S       0.083200
     62 H25         -1.0850     1.6930     0.1270 hn         1 L4S       0.336500
     63 H26          8.1130     2.2240    -4.0120 hn         1 L4S       0.446800
     64 H27          7.7810     3.3740    -2.7700 hn         1 L4S       0.446800
     65 H28          5.8750    -4.1640     2.3130 ho         1 L4S       0.411000
     66 H29         -7.5730    -0.9460     1.9770 ho         1 L4S       0.478000
     67 O25         -6.1460    -1.0890     1.1380 o          1 L4S      -0.568100
@<TRIPOS>BOND
     1     1    12 1   
     2     1    29 1   
     3     1    35 2   
     4     2    13 1   
     5     2    14 1   
     6     2    38 1   
     7     2    39 1   
     8     3    14 1   
     9     3    15 1   
    10     3    40 1   
    11     3    41 1   
    12     4    15 1   
    13     4    16 1   
    14     4    67 2   
    15     5     6 ar  
    16     5    17 ar  
    17     5    42 1   
    18     6    18 ar  
    19     6    43 1   
    20     7    16 ar  
    21     7    18 ar  
    22     7    44 1   
    23     8     9 1   
    24     8    25 1   
    25     8    33 1   
    26     8    45 1   
    27     9    10 1   
    28     9    36 1   
    29     9    46 1   
    30    10    26 1   
    31    10    47 1   
    32    10    48 1   
    33    11    19 2   
    34    11    28 1   
    35    11    29 1   
    36    12    13 1   
    37    12    49 1   
    38    12    50 1   
    39    13    15 1   
    40    13    51 1   
    41    14    52 1   
    42    14    53 1   
    43    15    54 1   
    44    16    17 ar  
    45    17    34 1   
    46    18    55 1   
    47    19    26 1   
    48    19    56 1   
    49    20    25 1   
    50    20    30 1   
    51    20    36 1   
    52    20    57 1   
    53    21    22 2   
    54    21    30 1   
    55    21    58 1   
    56    22    23 1   
    57    22    59 1   
    58    23    31 1   
    59    23    32 2   
    60    24    30 1   
    61    24    32 1   
    62    24    37 2   
    63    25    60 1   
    64    25    61 1   
    65    26    27 1   
    66    27    28 2   
    67    29    62 1   
    68    31    63 1   
    69    31    64 1   
    70    33    65 1   
    71    34    66 1   
@<TRIPOS>SUBSTRUCTURE
     1 L4S         1 TEMP              0 ****  ****    0 ROOT
