@<TRIPOS>MOLECULE
L4S
   67    71     1     0     0
SMALL
No Charge or Current Charge


@<TRIPOS>ATOM
      1 C10         -2.1180    -0.1330     1.0510 c          1 L4S       0.607100
      2 C13         -3.0490    -0.2740    -1.9560 c5         1 L4S      -0.082400
      3 C15         -5.2800    -0.8980    -2.7340 c5         1 L4S      -0.070400
      4 C17         -6.4270    -1.0350    -0.4460 c          1 L4S       0.608700
      5 C21         -9.4380     0.4710     1.3650 ca         1 L4S      -0.179000
      6 C22         -9.8680     1.4560     0.4640 ca         1 L4S      -0.033000
      7 C24         -8.0820     0.8180    -1.0650 ca         1 L4S      -0.023000
      8 C02          5.0880    -1.9680     2.4150 c5         1 L4S       0.141300
      9 C03          3.8050    -1.3490     1.7460 c5         1 L4S       0.156300
     10 C04          3.3520    -0.0120     2.3810 c3         1 L4S       0.058600
     11 C08          0.1180     0.9280     1.1730 cc         1 L4S       0.323900
     12 C11         -3.5440     0.1660     0.5720 c3         1 L4S      -0.148400
     13 C12         -3.9020    -0.6270    -0.7120 c5         1 L4S      -0.048700
     14 C14         -3.7660    -1.1200    -3.0380 c5         1 L4S      -0.077400
     15 C16         -5.3220    -0.3160    -1.2780 c5         1 L4S      -0.160700
     16 C18         -7.6230    -0.1590    -0.1480 ca         1 L4S      -0.299600
     17 C19         -8.3340    -0.3370     1.0580 ca         1 L4S       0.225100
     18 C23         -9.1930     1.6210    -0.7540 ca         1 L4S      -0.177000
     19 C27          0.8730    -0.0350     1.7580 cd         1 L4S      -0.230000
     20 C29          5.5250    -1.4990     0.1580 c5         1 L4S       0.343700
     21 C31          7.1800    -1.2870    -1.6620 cc         1 L4S       0.024600
     22 C32          7.8340    -0.5410    -2.6130 cd         1 L4S      -0.479600
     23 C33          7.5360     0.8340    -2.6670 cd         1 L4S       0.786500
     24 C36          6.0400     0.7340    -0.9110 c          1 L4S       0.725400
     25 C38          6.2020    -1.3510     1.5380 c5         1 L4S      -0.161400
     26 N05          2.1170     0.5540     1.8160 na         1 L4S       0.139800
     27 N06          2.0720     1.8250     1.2930 nd         1 L4S      -0.150800
     28 N07          0.8410     2.0420     0.8970 nc         1 L4S      -0.410000
     29 N09         -1.2180     0.8890     0.8570 ns         1 L4S      -0.461400
     30 N30          6.2710    -0.6590    -0.8150 n          1 L4S      -0.323000
     31 N34          8.1320     1.6080    -3.5510 nv         1 L4S      -1.034200
     32 N35          6.7130     1.4350    -1.8780 nc         1 L4S      -0.769100
     33 O01          5.1120    -3.3990     2.3320 oh         1 L4S      -0.713000
     34 O20         -7.9660    -1.3030     1.9430 oh         1 L4S      -0.545100
     35 O26         -1.8260    -1.1920     1.5860 o          1 L4S      -0.591100
     36 O28          4.1520    -1.1150     0.3530 os         1 L4S      -0.432000
     37 O37          5.3020     1.3470    -0.1590 o          1 L4S      -0.545000
     38 H1          -3.0770     0.7980    -2.1890 hc         1 L4S       0.049700
     39 H2          -1.9960    -0.5600    -1.8440 hc         1 L4S       0.049700
     40 H3          -5.7330    -0.1990    -3.4470 hc         1 L4S       0.052700
     41 H4          -5.8340    -1.8410    -2.8280 hc         1 L4S       0.052700
     42 H5          -9.9690     0.3270     2.3020 ha         1 L4S       0.134000
     43 H6         -10.7280     2.0790     0.7020 ha         1 L4S       0.116000
     44 H7          -7.5990     0.9580    -2.0300 ha         1 L4S       0.112000
     45 H8           5.1830    -1.6530     3.4650 h1         1 L4S       0.058700
     46 H9           2.9680    -2.0590     1.7930 h1         1 L4S       0.091700
     47 H10          3.1860    -0.1700     3.4530 h1         1 L4S       0.090200
     48 H11          4.1570     0.7260     2.2780 h1         1 L4S       0.090200
     49 H12         -4.2370    -0.1200     1.3710 hc         1 L4S       0.064700
     50 H13         -3.6520     1.2390     0.3720 hc         1 L4S       0.064700
     51 H14         -3.7930    -1.6940    -0.4690 hc         1 L4S       0.091700
     52 H15         -3.4950    -0.8100    -4.0540 hc         1 L4S       0.045700
     53 H16         -3.5000    -2.1800    -2.9460 hc         1 L4S       0.045700
     54 H17         -5.5010     0.7640    -1.3160 hc         1 L4S       0.067700
     55 H18         -9.5330     2.3710    -1.4640 ha         1 L4S       0.120000
     56 H19          0.6440    -1.0290     2.1140 h4         1 L4S       0.187000
     57 H20          5.5660    -2.5390    -0.1890 h2         1 L4S       0.054700
     58 H21          7.2910    -2.3560    -1.4930 h4         1 L4S       0.198000
     59 H22          8.5420    -0.9890    -3.2990 ha         1 L4S       0.202000
     60 H23          6.3910    -0.3040     1.7990 hc         1 L4S       0.083200
     61 H24          7.1540    -1.8890     1.6010 hc         1 L4S       0.083200
     62 H25         -1.6010     1.7130     0.4150 hn         1 L4S       0.336500
     63 H26          9.0350     1.2870    -3.8710 hn         1 L4S       0.502000
     64 H27          8.0650     2.5940    -3.3380 hn         1 L4S       0.502000
     65 H28          5.8450    -3.7140     2.9120 ho         1 L4S       0.510000
     66 H29         -7.3330    -1.8920     1.4650 ho         1 L4S       0.517000
     67 O25         -6.3720    -2.1890    -0.0350 o          1 L4S      -0.568100
@<TRIPOS>BOND
     1     1    12 1   
     2     1    29 1   
     3     1    35 2   
     4     2    13 1   
     5     2    14 1   
     6     2    38 1   
     7     2    39 1   
     8     3    14 1   
     9     3    15 1   
    10     3    40 1   
    11     3    41 1   
    12     4    15 1   
    13     4    16 1   
    14     4    67 2   
    15     5     6 ar  
    16     5    17 ar  
    17     5    42 1   
    18     6    18 ar  
    19     6    43 1   
    20     7    16 ar  
    21     7    18 ar  
    22     7    44 1   
    23     8     9 1   
    24     8    25 1   
    25     8    33 1   
    26     8    45 1   
    27     9    10 1   
    28     9    36 1   
    29     9    46 1   
    30    10    26 1   
    31    10    47 1   
    32    10    48 1   
    33    11    19 2   
    34    11    28 1   
    35    11    29 1   
    36    12    13 1   
    37    12    49 1   
    38    12    50 1   
    39    13    15 1   
    40    13    51 1   
    41    14    52 1   
    42    14    53 1   
    43    15    54 1   
    44    16    17 ar  
    45    17    34 1   
    46    18    55 1   
    47    19    26 1   
    48    19    56 1   
    49    20    25 1   
    50    20    30 1   
    51    20    36 1   
    52    20    57 1   
    53    21    22 2   
    54    21    30 1   
    55    21    58 1   
    56    22    23 1   
    57    22    59 1   
    58    23    31 1   
    59    23    32 2   
    60    24    30 1   
    61    24    32 1   
    62    24    37 2   
    63    25    60 1   
    64    25    61 1   
    65    26    27 1   
    66    27    28 2   
    67    29    62 1   
    68    31    63 1   
    69    31    64 1   
    70    33    65 1   
    71    34    66 1   
@<TRIPOS>SUBSTRUCTURE
     1 L4S         1 TEMP              0 ****  ****    0 ROOT
