@<TRIPOS>MOLECULE
L4T
  105   110     1     0     0
SMALL
No Charge or Current Charge


@<TRIPOS>ATOM
      1 C25         -3.4230     3.8800    -1.3000 c          1 L4T       0.642100
      2 O26         -2.3330     4.3730    -1.0550 o          1 L4T      -0.561000
      3 O27         -4.5450     4.5410    -1.7060 os         1 L4T      -0.461100
      4 C28         -4.4340     5.9890    -1.7080 c5         1 L4T       0.194300
      5 C29         -4.5520     6.5350    -0.2570 c5         1 L4T      -0.094900
      6 C30         -6.0180     6.1770     0.1200 c5         1 L4T      -0.075900
      7 C31         -6.8140     6.3240    -1.2170 c5         1 L4T      -0.075900
      8 C32         -5.7350     6.5620    -2.3220 c5         1 L4T      -0.094900
      9 N24         -3.7100     2.5480    -1.2390 ns         1 L4T      -0.491900
     10 C19         -2.7720     1.4850    -0.8050 c3         1 L4T       0.060700
     11 C20         -2.9930     1.1010     0.7150 c3         1 L4T      -0.047000
     12 C21         -4.3790     0.4270     0.9180 c3         1 L4T      -0.091433
     13 C22         -1.8970     0.1250     1.2230 c3         1 L4T      -0.091433
     14 C23         -2.9290     2.3700     1.6140 c3         1 L4T      -0.091433
     15 C17         -2.9030     0.2780    -1.8010 c          1 L4T       0.602100
     16 O18         -3.9730     0.0220    -2.3460 o          1 L4T      -0.603100
     17 C10         -2.5320    -3.0030    -2.0640 c          1 L4T       0.614100
     18 O11         -2.6530    -3.1030    -0.8480 o          1 L4T      -0.601100
     19 C12         -1.9020    -1.8080    -2.8490 c5         1 L4T       0.017700
     20 C13         -0.4040    -2.1290    -3.1690 c5         1 L4T      -0.084400
     21 C14          0.3330    -1.5150    -1.9550 c5         1 L4T       0.152300
     22 C15         -0.3800    -0.1370    -1.8620 c5         1 L4T       0.072000
     23 N16         -1.7860    -0.5550    -2.0440 n          1 L4T      -0.393800
     24 O33          1.7270    -1.3380    -2.3330 os         1 L4T      -0.333100
     25 C34          2.4920    -0.6670    -1.3800 ca         1 L4T       0.215100
     26 C35          2.1580    -0.5950    -0.0130 ca         1 L4T      -0.259000
     27 C36          2.9730     0.1260     0.8750 ca         1 L4T       0.397000
     28 N37          4.1060     0.7330     0.4430 nb         1 L4T      -0.702000
     29 C38          4.4700     0.6540    -0.8570 ca         1 L4T       0.359000
     30 C39          3.6810    -0.0410    -1.8030 ca         1 L4T      -0.142000
     31 C40          4.0830    -0.0960    -3.1540 ca         1 L4T      -0.004000
     32 C41          5.2650     0.5330    -3.5670 ca         1 L4T      -0.214000
     33 C42          6.0600     1.2270    -2.6350 ca         1 L4T       0.183100
     34 C43          5.6600     1.2850    -1.2870 ca         1 L4T      -0.073900
     35 Br44         6.7600     2.2450    -0.0220 br         1 L4T      -0.072100
     36 O45          7.2330     1.8610    -3.0020 os         1 L4T      -0.327100
     37 C46          7.7220     1.8570    -4.3550 c3         1 L4T       0.151900
     38 C47          2.5760     0.2560     2.3090 cc         1 L4T       0.241000
     39 C48          3.3640     0.9760     3.1790 cd         1 L4T      -0.254000
     40 S49          2.6410     1.0020     4.7760 ss         1 L4T       0.045600
     41 C50          1.3170     0.0280     4.1130 cd         1 L4T       0.537300
     42 N51          1.4220    -0.2850     2.8370 nc         1 L4T      -0.697000
     43 N52          0.2170    -0.3970     4.8000 ns         1 L4T      -0.471400
     44 C53         -0.1370    -0.1600     6.1040 c          1 L4T       0.606100
     45 O54          0.5450     0.4990     6.8740 o          1 L4T      -0.578100
     46 C55         -1.4800    -0.7920     6.5300 c3         1 L4T      -0.131700
     47 C56         -1.2800    -1.8250     7.6640 c3         1 L4T      -0.084600
     48 C57         -2.5130     0.2960     6.9130 c3         1 L4T      -0.084600
     49 C4          -3.5700    -5.2320    -2.6160 cx         1 L4T      -0.054600
     50 C6          -4.8950    -5.1960    -1.8680 cx         1 L4T      -0.082500
     51 C5          -4.8740    -5.5350    -3.3350 cx         1 L4T      -0.126400
     52 C7          -5.2600    -6.2480    -0.8780 c2         1 L4T      -0.124200
     53 C8          -4.8460    -6.2580     0.3970 c2         1 L4T      -0.378000
     54 C2          -2.6030    -6.4090    -2.3530 c          1 L4T       0.745000
     55 O3          -2.5310    -7.3000    -3.1900 o          1 L4T      -0.719500
     56 O1          -1.8550    -6.3470    -1.3850 o          1 L4T      -0.719500
     57 H26         -3.5300     6.3140    -2.2430 h1         1 L4T       0.071700
     58 H27         -3.8250     6.0930     0.4330 hc         1 L4T       0.055200
     59 H28         -4.3920     7.6190    -0.2350 hc         1 L4T       0.055200
     60 H29         -6.0840     5.1500     0.4990 hc         1 L4T       0.042200
     61 H30         -6.4080     6.8300     0.9090 hc         1 L4T       0.042200
     62 H31         -7.3960     5.4170    -1.4210 hc         1 L4T       0.042200
     63 H32         -7.5300     7.1530    -1.1770 hc         1 L4T       0.042200
     64 H33         -5.6210     7.6320    -2.5320 hc         1 L4T       0.055200
     65 H34         -5.9960     6.0800    -3.2710 hc         1 L4T       0.055200
     66 H25         -4.6470     2.2860    -1.5160 hn         1 L4T       0.343500
     67 H15         -1.7570     1.8840    -0.9140 h1         1 L4T       0.087700
     68 H16         -4.4470    -0.5210     0.3700 hc         1 L4T       0.040367
     69 H17         -4.5550     0.2070     1.9780 hc         1 L4T       0.040367
     70 H18         -5.1930     1.0770     0.5750 hc         1 L4T       0.040367
     71 H19         -0.9040     0.5830     1.1630 hc         1 L4T       0.040367
     72 H20         -2.0690    -0.1400     2.2740 hc         1 L4T       0.040367
     73 H21         -1.8880    -0.8100     0.6530 hc         1 L4T       0.040367
     74 H22         -3.7560     3.0580     1.4020 hc         1 L4T       0.040367
     75 H23         -2.9940     2.1030     2.6760 hc         1 L4T       0.040367
     76 H24         -1.9870     2.9100     1.4620 hc         1 L4T       0.040367
     77 H9          -2.4810    -1.6440    -3.7680 h1         1 L4T       0.068700
     78 H10         -0.2040    -3.2010    -3.2840 hc         1 L4T       0.086200
     79 H11         -0.0940    -1.6430    -4.1020 hc         1 L4T       0.086200
     80 H12          0.2190    -2.1450    -1.0620 h1         1 L4T       0.099700
     81 H13         -0.1970     0.3550    -0.9020 h1         1 L4T       0.057700
     82 H14         -0.0650     0.5420    -2.6660 h1         1 L4T       0.057700
     83 H35          1.2800    -1.0800     0.3930 ha         1 L4T       0.158000
     84 H36          3.4860    -0.6250    -3.8940 ha         1 L4T       0.134000
     85 H37          5.5450     0.4700    -4.6150 ha         1 L4T       0.118000
     86 H38          7.9130     0.8320    -4.6980 h1         1 L4T       0.042033
     87 H39          6.9990     2.3280    -5.0330 h1         1 L4T       0.042033
     88 H40          8.6630     2.4170    -4.4200 h1         1 L4T       0.042033
     89 H41          4.2960     1.4890     2.9800 h4         1 L4T       0.178000
     90 H42         -0.4400    -0.9550     4.2780 hn         1 L4T       0.345500
     91 H43         -1.8910    -1.3340     5.6690 hc         1 L4T       0.065700
     92 H44         -0.8890    -1.3440     8.5690 hc         1 L4T       0.044867
     93 H45         -2.2300    -2.3110     7.9190 hc         1 L4T       0.044867
     94 H46         -0.5720    -2.6050     7.3570 hc         1 L4T       0.044867
     95 H47         -3.4810    -0.1570     7.1580 hc         1 L4T       0.044867
     96 H48         -2.1730     0.8700     7.7850 hc         1 L4T       0.044867
     97 H49         -2.6650     0.9950     6.0810 hc         1 L4T       0.044867
     98 H8          -2.8120    -3.7460    -3.9480 hn         1 L4T       0.297500
     99 H4          -5.2850    -4.2140    -1.6100 hc         1 L4T       0.066700
    100 H2          -5.2650    -4.7920    -4.0260 hc         1 L4T       0.065700
    101 H3          -5.0790    -6.5640    -3.6210 hc         1 L4T       0.065700
    102 H5          -5.9190    -7.0390    -1.2500 ha         1 L4T       0.200000
    103 H6          -5.1440    -7.0480     1.0880 ha         1 L4T       0.142500
    104 H7          -4.1910    -5.4790     0.7880 ha         1 L4T       0.142500
    105 N9          -2.9700    -3.9540    -2.9690 ns         1 L4T      -0.431900
@<TRIPOS>BOND
     1     1     2 2   
     2     1     3 1   
     3     1     9 1   
     4     3     4 1   
     5     4     5 1   
     6     4     8 1   
     7     4    57 1   
     8     5     6 1   
     9     5    58 1   
    10     5    59 1   
    11     6     7 1   
    12     6    60 1   
    13     6    61 1   
    14     7     8 1   
    15     7    62 1   
    16     7    63 1   
    17     8    64 1   
    18     8    65 1   
    19     9    10 1   
    20     9    66 1   
    21    10    11 1   
    22    10    15 1   
    23    10    67 1   
    24    11    12 1   
    25    11    13 1   
    26    11    14 1   
    27    12    68 1   
    28    12    69 1   
    29    12    70 1   
    30    13    71 1   
    31    13    72 1   
    32    13    73 1   
    33    14    74 1   
    34    14    75 1   
    35    14    76 1   
    36    15    16 2   
    37    15    23 1   
    38    17    18 2   
    39    17    19 1   
    40    17   105 1   
    41    19    20 1   
    42    19    23 1   
    43    19    77 1   
    44    20    21 1   
    45    20    78 1   
    46    20    79 1   
    47    21    22 1   
    48    21    24 1   
    49    21    80 1   
    50    22    23 1   
    51    22    81 1   
    52    22    82 1   
    53    24    25 1   
    54    25    26 ar  
    55    25    30 ar  
    56    26    27 ar  
    57    26    83 1   
    58    27    28 ar  
    59    27    38 1   
    60    28    29 ar  
    61    29    30 ar  
    62    29    34 ar  
    63    30    31 ar  
    64    31    32 ar  
    65    31    84 1   
    66    32    33 ar  
    67    32    85 1   
    68    33    34 ar  
    69    33    36 1   
    70    34    35 1   
    71    36    37 1   
    72    37    86 1   
    73    37    87 1   
    74    37    88 1   
    75    38    39 2   
    76    38    42 1   
    77    39    40 1   
    78    39    89 1   
    79    40    41 1   
    80    41    42 2   
    81    41    43 1   
    82    43    44 1   
    83    43    90 1   
    84    44    45 2   
    85    44    46 1   
    86    46    47 1   
    87    46    48 1   
    88    46    91 1   
    89    47    92 1   
    90    47    93 1   
    91    47    94 1   
    92    48    95 1   
    93    48    96 1   
    94    48    97 1   
    95    49    50 1   
    96    49    51 1   
    97    49    54 1   
    98    49   105 1   
    99    50    51 1   
   100    50    52 1   
   101    50    99 1   
   102    51   100 1   
   103    51   101 1   
   104    52    53 2   
   105    52   102 1   
   106    53   103 1   
   107    53   104 1   
   108    54    55 1   
   109    54    56 1   
   110    98   105 1   
@<TRIPOS>SUBSTRUCTURE
     1 L4T         1 TEMP              0 ****  ****    0 ROOT
