@<TRIPOS>MOLECULE
L4T
  105   110     1     0     0
SMALL
abcg2


@<TRIPOS>ATOM
      1 C25         -3.8230     3.5110    -0.9350 c          1 L4T       0.642100
      2 O26         -2.7540     4.0670    -0.7770 o          1 L4T      -0.561000
      3 O27         -4.9570     4.1360    -1.2580 os         1 L4T      -0.461100
      4 C28         -4.9410     5.5700    -1.3600 c5         1 L4T       0.194300
      5 C29         -4.9970     6.2150     0.0180 c5         1 L4T      -0.094900
      6 C30         -6.4500     6.0180     0.4780 c5         1 L4T      -0.075900
      7 C31         -7.2820     5.8510    -0.8160 c5         1 L4T      -0.075900
      8 C32         -6.2750     5.9670    -1.9700 c5         1 L4T      -0.094900
      9 N24         -4.0360     2.1860    -0.8150 ns         1 L4T      -0.491900
     10 C19         -2.9920     1.2430    -0.5020 c3         1 L4T       0.060700
     11 C20         -3.1630     0.6310     0.9220 c3         1 L4T      -0.047000
     12 C21         -4.4460    -0.1930     1.0420 c3         1 L4T      -0.091433
     13 C22         -1.9670    -0.2620     1.2630 c3         1 L4T      -0.091433
     14 C23         -3.2050     1.7810     1.9300 c3         1 L4T      -0.091433
     15 C17         -2.9990     0.1840    -1.6050 c          1 L4T       0.602100
     16 O18         -4.0590    -0.2490    -2.0330 o          1 L4T      -0.603100
     17 C10         -2.4530    -2.6050    -2.4430 c          1 L4T       0.614100
     18 O11         -2.2750    -2.8950    -1.2740 o          1 L4T      -0.601100
     19 C12         -1.8340    -1.3500    -3.0560 c5         1 L4T       0.017700
     20 C13         -0.3460    -1.5970    -3.3390 c5         1 L4T      -0.084400
     21 C14          0.3420    -1.0510    -2.0990 c5         1 L4T       0.152300
     22 C15         -0.4900     0.1890    -1.7690 c5         1 L4T       0.072000
     23 N16         -1.8290    -0.2570    -2.0980 n          1 L4T      -0.393800
     24 O33          1.6950    -0.7640    -2.4000 os         1 L4T      -0.333100
     25 C34          2.5340    -0.4100    -1.4260 ca         1 L4T       0.215100
     26 C35          2.2060    -0.3190    -0.0980 ca         1 L4T      -0.259000
     27 C36          3.1970     0.1010     0.8110 ca         1 L4T       0.397000
     28 N37          4.4300     0.3880     0.4730 nb         1 L4T      -0.702000
     29 C38          4.7790     0.2800    -0.8220 ca         1 L4T       0.359000
     30 C39          3.8640    -0.1120    -1.8330 ca         1 L4T      -0.142000
     31 C40          4.2950    -0.1910    -3.1680 ca         1 L4T      -0.004000
     32 C41          5.5880     0.0980    -3.5090 ca         1 L4T      -0.214000
     33 C42          6.5210     0.4860    -2.5220 ca         1 L4T       0.183100
     34 C43          6.1090     0.5720    -1.2050 ca         1 L4T      -0.073900
     35 BR44         7.3450     1.0940     0.1060 br         1 L4T      -0.072100
     36 O45          7.7940     0.7810    -2.7930 os         1 L4T      -0.327100
     37 C46          8.2550     0.7190    -4.1330 c3         1 L4T       0.151900
     38 C47          2.8390     0.2530     2.2260 cc         1 L4T       0.241000
     39 C48          3.6650     0.7110     3.2040 cd         1 L4T      -0.254000
     40 S49          2.8370     0.7620     4.7080 ss         1 L4T       0.045600
     41 C50          1.4290     0.1550     3.9010 cd         1 L4T       0.537300
     42 N51          1.5710    -0.0600     2.6360 nc         1 L4T      -0.697000
     43 N52          0.2430    -0.0930     4.5420 ns         1 L4T      -0.471400
     44 C53          0.0110     0.1320     5.8680 c          1 L4T       0.606100
     45 O54          0.8890     0.5710     6.5860 o          1 L4T      -0.578100
     46 C55         -1.4010    -0.1580     6.3210 c3         1 L4T      -0.131700
     47 C56         -1.4360    -0.6010     7.7770 c3         1 L4T      -0.084600
     48 C57         -2.2540     1.0960     6.0980 c3         1 L4T      -0.084600
     49 C4          -3.4850    -4.7110    -3.0420 cx         1 L4T      -0.054600
     50 C6          -4.6040    -4.8800    -2.0270 cx         1 L4T      -0.082500
     51 C5          -4.8540    -5.1260    -3.4830 cx         1 L4T      -0.126400
     52 C7          -4.6420    -5.9690    -1.0370 c2         1 L4T      -0.124200
     53 C8          -5.0290    -5.7960     0.2250 c2         1 L4T      -0.378000
     54 C2          -2.3260    -5.7090    -3.1320 c          1 L4T       0.745000
     55 O3          -2.6180    -6.9190    -3.0620 o          1 L4T      -0.719500
     56 O1          -1.1920    -5.2210    -3.2840 o          1 L4T      -0.719500
     57 H26         -4.0840     5.8890    -1.9560 h1         1 L4T       0.071700
     58 H27         -4.2610     5.8160     0.7150 hc         1 L4T       0.055200
     59 H28         -4.7740     7.2780    -0.1060 hc         1 L4T       0.055200
     60 H29         -6.5340     5.1300     1.1060 hc         1 L4T       0.042200
     61 H30         -6.7930     6.8580     1.0810 hc         1 L4T       0.042200
     62 H31         -7.7760     4.8790    -0.8320 hc         1 L4T       0.042200
     63 H32         -8.0670     6.6030    -0.9000 hc         1 L4T       0.042200
     64 H33         -6.1920     7.0040    -2.3020 hc         1 L4T       0.055200
     65 H34         -6.5390     5.3720    -2.8460 hc         1 L4T       0.055200
     66 H25         -4.9550     1.8250    -1.0210 hn         1 L4T       0.343500
     67 H15         -2.0560     1.8040    -0.5100 h1         1 L4T       0.087700
     68 H16         -4.4150    -1.0950     0.4300 hc         1 L4T       0.040367
     69 H17         -4.5830    -0.5040     2.0800 hc         1 L4T       0.040367
     70 H18         -5.3340     0.3770     0.7610 hc         1 L4T       0.040367
     71 H19         -1.0370     0.3080     1.3150 hc         1 L4T       0.040367
     72 H20         -2.1190    -0.7170     2.2440 hc         1 L4T       0.040367
     73 H21         -1.8410    -1.0780     0.5510 hc         1 L4T       0.040367
     74 H22         -4.0800     2.4190     1.7970 hc         1 L4T       0.040367
     75 H23         -3.2520     1.3790     2.9440 hc         1 L4T       0.040367
     76 H24         -2.3150     2.4090     1.8600 hc         1 L4T       0.040367
     77 H9          -2.3620    -1.0680    -3.9700 h1         1 L4T       0.068700
     78 H10         -0.1310    -2.6500    -3.5230 hc         1 L4T       0.086200
     79 H11         -0.0320    -1.0240    -4.2130 hc         1 L4T       0.086200
     80 H12          0.2810    -1.7750    -1.2800 h1         1 L4T       0.099700
     81 H13         -0.4080     0.4930    -0.7300 h1         1 L4T       0.057700
     82 H14         -0.1780     1.0320    -2.3950 h1         1 L4T       0.057700
     83 H35          1.2240    -0.5490     0.2840 ha         1 L4T       0.158000
     84 H36          3.6030    -0.4840    -3.9460 ha         1 L4T       0.134000
     85 H37          5.8840     0.0270    -4.5460 ha         1 L4T       0.118000
     86 H38          8.1760    -0.2890    -4.5430 h1         1 L4T       0.042033
     87 H39          7.7180     1.4160    -4.7800 h1         1 L4T       0.042033
     88 H40          9.3030     1.0050    -4.1030 h1         1 L4T       0.042033
     89 H41          4.6930     1.0200     3.1120 h4         1 L4T       0.178000
     90 H42         -0.4810    -0.5010     3.9670 hn         1 L4T       0.345500
     91 H43         -1.8040    -0.9610     5.6960 hc         1 L4T       0.065700
     92 H44         -1.0790     0.1860     8.4400 hc         1 L4T       0.044867
     93 H45         -2.4610    -0.8380     8.0610 hc         1 L4T       0.044867
     94 H46         -0.8290    -1.4900     7.9460 hc         1 L4T       0.044867
     95 H47         -3.2860     0.8960     6.3870 hc         1 L4T       0.044867
     96 H48         -1.8900     1.9300     6.6990 hc         1 L4T       0.044867
     97 H49         -2.2570     1.4110     5.0540 hc         1 L4T       0.044867
     98 H8          -3.1570    -3.0630    -4.2800 hn         1 L4T       0.297500
     99 H4          -4.9750    -3.9330    -1.6480 hc         1 L4T       0.066700
    100 H2          -5.4550    -4.4040    -4.0230 hc         1 L4T       0.065700
    101 H3          -4.9690    -6.1510    -3.8110 hc         1 L4T       0.065700
    102 H5          -4.3490    -6.9530    -1.3790 ha         1 L4T       0.200000
    103 H6          -5.0650    -6.6230     0.9220 ha         1 L4T       0.142500
    104 H7          -5.3220    -4.8250     0.6060 ha         1 L4T       0.142500
    105 N9          -3.1410    -3.3560    -3.3150 ns         1 L4T      -0.431900
@<TRIPOS>BOND
     1     1     2 2   
     2     1     3 1   
     3     1     9 1   
     4     3     4 1   
     5     4     5 1   
     6     4     8 1   
     7     4    57 1   
     8     5     6 1   
     9     5    58 1   
    10     5    59 1   
    11     6     7 1   
    12     6    60 1   
    13     6    61 1   
    14     7     8 1   
    15     7    62 1   
    16     7    63 1   
    17     8    64 1   
    18     8    65 1   
    19     9    10 1   
    20     9    66 1   
    21    10    11 1   
    22    10    15 1   
    23    10    67 1   
    24    11    12 1   
    25    11    13 1   
    26    11    14 1   
    27    12    68 1   
    28    12    69 1   
    29    12    70 1   
    30    13    71 1   
    31    13    72 1   
    32    13    73 1   
    33    14    74 1   
    34    14    75 1   
    35    14    76 1   
    36    15    16 2   
    37    15    23 1   
    38    17    18 2   
    39    17    19 1   
    40    17   105 1   
    41    19    20 1   
    42    19    23 1   
    43    19    77 1   
    44    20    21 1   
    45    20    78 1   
    46    20    79 1   
    47    21    22 1   
    48    21    24 1   
    49    21    80 1   
    50    22    23 1   
    51    22    81 1   
    52    22    82 1   
    53    24    25 1   
    54    25    26 ar  
    55    25    30 ar  
    56    26    27 ar  
    57    26    83 1   
    58    27    28 ar  
    59    27    38 1   
    60    28    29 ar  
    61    29    30 ar  
    62    29    34 ar  
    63    30    31 ar  
    64    31    32 ar  
    65    31    84 1   
    66    32    33 ar  
    67    32    85 1   
    68    33    34 ar  
    69    33    36 1   
    70    34    35 1   
    71    36    37 1   
    72    37    86 1   
    73    37    87 1   
    74    37    88 1   
    75    38    39 2   
    76    38    42 1   
    77    39    40 1   
    78    39    89 1   
    79    40    41 1   
    80    41    42 2   
    81    41    43 1   
    82    43    44 1   
    83    43    90 1   
    84    44    45 2   
    85    44    46 1   
    86    46    47 1   
    87    46    48 1   
    88    46    91 1   
    89    47    92 1   
    90    47    93 1   
    91    47    94 1   
    92    48    95 1   
    93    48    96 1   
    94    48    97 1   
    95    49    50 1   
    96    49    51 1   
    97    49    54 1   
    98    49   105 1   
    99    50    51 1   
   100    50    52 1   
   101    50    99 1   
   102    51   100 1   
   103    51   101 1   
   104    52    53 2   
   105    52   102 1   
   106    53   103 1   
   107    53   104 1   
   108    54    55 1   
   109    54    56 1   
   110    98   105 1   
@<TRIPOS>SUBSTRUCTURE
     1 L4T         1 TEMP              0 ****  ****    0 ROOT
