@<TRIPOS>MOLECULE
L4U
   36    36     1     0     0
SMALL
abcg2


@<TRIPOS>ATOM
      1 N1           8.2580     1.9430    18.1210 nb         1 L4U      -0.645000
      2 C4          11.9690    -2.2190    23.7220 c3         1 L4U      -0.088100
      3 C5          10.7690    -0.1620    22.9540 c3         1 L4U      -0.161400
      4 C6          10.1950     0.6670    21.8250 c          1 L4U       0.604100
      5 C7           8.4150     0.5580    20.0790 ca         1 L4U      -0.075000
      6 C8           8.9380     1.4860    19.1740 ca         1 L4U       0.324900
      7 C10          6.4250     0.5510    18.7670 ca         1 L4U      -0.141000
      8 O           10.6350     1.7710    21.5240 o          1 L4U      -0.578100
      9 C3          11.4470    -1.4700    22.4940 c3         1 L4U      -0.048700
     10 C1          12.5150    -1.2300    21.4030 c3         1 L4U      -0.060700
     11 C2          12.9680    -2.5440    20.7630 c3         1 L4U      -0.087100
     12 C           13.7210    -0.4230    21.8900 c3         1 L4U      -0.087100
     13 N            9.1510     0.0740    21.1720 ns         1 L4U      -0.153000
     14 C11          7.1150     0.0660    19.8720 ca         1 L4U      -0.091300
     15 C12          6.4940    -0.9350    20.8000 c3         1 L4U      -0.051800
     16 C9           7.0200     1.4820    17.9270 ca         1 L4U       0.311900
     17 H2          12.4410    -3.1630    23.4440 hc         1 L4U       0.037367
     18 H3          12.7020    -1.6230    24.2690 hc         1 L4U       0.037367
     19 H4          11.4800     0.4700    23.4850 hc         1 L4U       0.069200
     20 H5           9.9650    -0.4120    23.6520 hc         1 L4U       0.069200
     21 H6           9.9380     1.8660    19.3160 h4         1 L4U       0.048100
     22 H7           5.4190     0.2060    18.5660 ha         1 L4U       0.120000
     23 H8          10.6740    -2.0960    22.0350 hc         1 L4U       0.037700
     24 H9          12.0280    -0.6460    20.6140 hc         1 L4U       0.050700
     25 H10         13.6250    -2.3480    19.9130 hc         1 L4U       0.035367
     26 H11         13.5220    -3.1640    21.4710 hc         1 L4U       0.035367
     27 H12         12.1130    -3.1230    20.4040 hc         1 L4U       0.035367
     28 H13         13.4260     0.5330    22.3250 hc         1 L4U       0.035367
     29 H14         14.2890    -0.9740    22.6430 hc         1 L4U       0.035367
     30 H15         14.3940    -0.2140    21.0560 hc         1 L4U       0.035367
     31 H16          8.8320    -0.7990    21.5640 hn         1 L4U       0.151000
     32 H17          7.0380    -1.8850    20.7820 hc         1 L4U       0.045700
     33 H18          6.5050    -0.5760    21.8320 hc         1 L4U       0.045700
     34 H19          5.4630    -1.1350    20.5140 hc         1 L4U       0.045700
     35 H20          6.4840     1.8670    17.0670 h4         1 L4U       0.021100
     36 H1          11.1480    -2.4450    24.4050 hc         1 L4U       0.037367
@<TRIPOS>BOND
     1     1     6 ar  
     2     1    16 ar  
     3     2     9 1   
     4     2    17 1   
     5     2    18 1   
     6     2    36 1   
     7     3     4 1   
     8     3     9 1   
     9     3    19 1   
    10     3    20 1   
    11     4     8 2   
    12     4    13 1   
    13     5     6 ar  
    14     5    13 1   
    15     5    14 ar  
    16     6    21 1   
    17     7    14 ar  
    18     7    16 ar  
    19     7    22 1   
    20     9    10 1   
    21     9    23 1   
    22    10    11 1   
    23    10    12 1   
    24    10    24 1   
    25    11    25 1   
    26    11    26 1   
    27    11    27 1   
    28    12    28 1   
    29    12    29 1   
    30    12    30 1   
    31    13    31 1   
    32    14    15 1   
    33    15    32 1   
    34    15    33 1   
    35    15    34 1   
    36    16    35 1   
@<TRIPOS>SUBSTRUCTURE
     1 L4U         1 TEMP              0 ****  ****    0 ROOT
