@<TRIPOS>MOLECULE
L4U
   36    36     1     0     0
SMALL
No Charge or Current Charge


@<TRIPOS>ATOM
      1 N1           7.8900     2.0190    17.9760 nb         1 L4U      -0.645000
      2 C4          11.8800    -2.3970    23.6310 c3         1 L4U      -0.088100
      3 C5          10.7740    -0.3100    22.6760 c3         1 L4U      -0.161400
      4 C6          10.2970     0.4650    21.4370 c          1 L4U       0.604100
      5 C7           8.1790     0.6650    19.9890 ca         1 L4U      -0.075000
      6 C8           8.6560     1.5580    18.9940 ca         1 L4U       0.324900
      7 C10          6.0470     0.7180    18.8480 ca         1 L4U      -0.141000
      8 O           11.0080     1.2890    20.8740 o          1 L4U      -0.578100
      9 C3          11.6160    -1.5810    22.3380 c3         1 L4U      -0.048700
     10 C1          12.9140    -1.3010    21.5020 c3         1 L4U      -0.060700
     11 C2          13.5930    -2.6010    21.0030 c3         1 L4U      -0.087100
     12 C           13.9440    -0.3900    22.2170 c3         1 L4U      -0.087100
     13 N            8.9920     0.1800    21.0570 ns         1 L4U      -0.153000
     14 C11          6.8350     0.2330    19.9080 ca         1 L4U      -0.091300
     15 C12          6.2360    -0.7290    20.9290 c3         1 L4U      -0.051800
     16 C9           6.6070     1.6020    17.9120 ca         1 L4U       0.311900
     17 H2          12.3690    -3.3530    23.4100 hc         1 L4U       0.037367
     18 H3          12.5100    -1.8390    24.3320 hc         1 L4U       0.037367
     19 H4          11.3640     0.3600    23.3110 hc         1 L4U       0.069200
     20 H5           9.8910    -0.6500    23.2310 hc         1 L4U       0.069200
     21 H6           9.6800     1.9210    18.9900 h4         1 L4U       0.048100
     22 H7           5.0080     0.4170    18.7410 ha         1 L4U       0.120000
     23 H8          10.9730    -2.2110    21.7080 hc         1 L4U       0.037700
     24 H9          12.6070    -0.7730    20.5920 hc         1 L4U       0.050700
     25 H10         14.3830    -2.3660    20.2780 hc         1 L4U       0.035367
     26 H11         14.0530    -3.1560    21.8290 hc         1 L4U       0.035367
     27 H12         12.8670    -3.2550    20.5060 hc         1 L4U       0.035367
     28 H13         13.5080     0.5820    22.4740 hc         1 L4U       0.035367
     29 H14         14.3190    -0.8560    23.1350 hc         1 L4U       0.035367
     30 H15         14.8040    -0.1990    21.5630 hc         1 L4U       0.035367
     31 H16          8.5330    -0.5060    21.6410 hn         1 L4U       0.151000
     32 H17          6.7720    -1.6860    20.9330 hc         1 L4U       0.045700
     33 H18          6.2830    -0.3100    21.9420 hc         1 L4U       0.045700
     34 H19          5.1820    -0.9450    20.7140 hc         1 L4U       0.045700
     35 H20          6.0110     1.9860    17.0860 h4         1 L4U       0.021100
     36 H1          10.9360    -2.6280    24.1400 hc         1 L4U       0.037367
@<TRIPOS>BOND
     1     1     6 ar  
     2     1    16 ar  
     3     2     9 1   
     4     2    17 1   
     5     2    18 1   
     6     2    36 1   
     7     3     4 1   
     8     3     9 1   
     9     3    19 1   
    10     3    20 1   
    11     4     8 2   
    12     4    13 1   
    13     5     6 ar  
    14     5    13 1   
    15     5    14 ar  
    16     6    21 1   
    17     7    14 ar  
    18     7    16 ar  
    19     7    22 1   
    20     9    10 1   
    21     9    23 1   
    22    10    11 1   
    23    10    12 1   
    24    10    24 1   
    25    11    25 1   
    26    11    26 1   
    27    11    27 1   
    28    12    28 1   
    29    12    29 1   
    30    12    30 1   
    31    13    31 1   
    32    14    15 1   
    33    15    32 1   
    34    15    33 1   
    35    15    34 1   
    36    16    35 1   
@<TRIPOS>SUBSTRUCTURE
     1 L4U         1 TEMP              0 ****  ****    0 ROOT
