@<TRIPOS>MOLECULE
L4V
   46    47     1     0     0
SMALL
No Charge or Current Charge


@<TRIPOS>ATOM
      1 C1           0.1750    -1.8770    -0.9320 c          1 L4V       0.629700
      2 C2          -1.1460    -1.3780    -0.4180 ca         1 L4V      -0.204600
      3 C3          -2.2810    -2.1900    -0.5800 ca         1 L4V       0.211100
      4 C4          -3.5410    -1.7500    -0.1610 ca         1 L4V      -0.307000
      5 C5          -3.6820    -0.4800     0.4100 ca         1 L4V       0.204100
      6 C6          -2.5580     0.3560     0.5750 ca         1 L4V       0.049000
      7 C7          -1.2770    -0.0900     0.1690 ca         1 L4V       0.049700
      8 C8          -0.0610     0.8280     0.3490 c3         1 L4V      -0.153100
      9 C9           0.1550     1.8260    -0.7910 c          1 L4V       0.581100
     10 C10          0.9430     3.1050    -0.4600 c3         1 L4V      -0.178400
     11 C11          2.4770     2.8630    -0.5280 c3         1 L4V      -0.070400
     12 C12          3.1070     2.3720     0.7990 c3         1 L4V      -0.045200
     13 C13          4.4780     1.7560     0.5920 c2         1 L4V      -0.217200
     14 C14          4.8000     0.4480     0.5920 c2         1 L4V      -0.214200
     15 C15          3.8750    -0.7420     0.7960 c3         1 L4V      -0.042200
     16 C16          3.4900    -1.4030    -0.5460 c3         1 L4V      -0.093400
     17 O2           0.4060    -1.9000    -2.1350 o          1 L4V      -0.586100
     18 O3          -2.1710    -3.4310    -1.1260 oh         1 L4V      -0.522100
     19 O4          -4.9240    -0.0690     0.7990 oh         1 L4V      -0.508100
     20 Cl1         -2.7700     1.9720     1.2750 cl         1 L4V      -0.177000
     21 C17          2.5260    -2.6060    -0.4240 c3         1 L4V       0.105000
     22 O5          -0.1970     1.5820    -1.9380 o          1 L4V      -0.494100
     23 N            1.1630    -2.2220     0.0180 n          1 L4V      -0.405800
     24 H4          -4.4100    -2.3910    -0.2840 ha         1 L4V       0.119000
     25 H3          -3.0660    -3.8300    -1.1590 ho         1 L4V       0.470000
     26 HA          -5.5600    -0.7860     0.5990 ho         1 L4V       0.470000
     27 H81C        -0.0760     1.3650     1.3030 hc         1 L4V       0.079700
     28 H82C         0.8720     0.2720     0.4370 hc         1 L4V       0.079700
     29 H101         0.6770     3.8810    -1.1880 hc         1 L4V       0.066200
     30 H102         0.7050     3.4400     0.5570 hc         1 L4V       0.066200
     31 H111         2.6940     2.1430    -1.3280 hc         1 L4V       0.053200
     32 H112         2.9750     3.7980    -0.8160 hc         1 L4V       0.053200
     33 H121         3.1840     3.2210     1.4890 hc         1 L4V       0.041200
     34 H122         2.4370     1.6650     1.2920 hc         1 L4V       0.041200
     35 H13          5.2650     2.4970     0.4300 ha         1 L4V       0.169000
     36 H14          5.8410     0.1580     0.4300 ha         1 L4V       0.168000
     37 H151         4.3690    -1.4860     1.4330 hc         1 L4V       0.041700
     38 H152         2.9670    -0.4530     1.3330 hc         1 L4V       0.041700
     39 H161         3.0400    -0.6510    -1.2040 hc         1 L4V       0.055700
     40 H162         4.4070    -1.7440    -1.0420 hc         1 L4V       0.055700
     41 H171         2.4630    -3.1100    -1.3970 h1         1 L4V       0.052200
     42 H172         2.9510    -3.3360     0.2780 h1         1 L4V       0.052200
     43 H181         0.4330    -1.5680     1.9030 h1         1 L4V       0.039367
     44 H182         0.0000    -3.2450     1.4630 h1         1 L4V       0.039367
     45 H183         1.6590    -2.8540     1.9920 h1         1 L4V       0.039367
     46 C18          0.7930    -2.4880     1.4270 c3         1 L4V       0.095300
@<TRIPOS>BOND
     1     1     2 1   
     2     1    17 2   
     3     1    23 1   
     4     2     3 ar  
     5     2     7 ar  
     6     3     4 ar  
     7     3    18 1   
     8     4     5 ar  
     9     4    24 1   
    10     5     6 ar  
    11     5    19 1   
    12     6     7 ar  
    13     6    20 1   
    14     7     8 1   
    15     8     9 1   
    16     8    27 1   
    17     8    28 1   
    18     9    10 1   
    19     9    22 2   
    20    10    11 1   
    21    10    29 1   
    22    10    30 1   
    23    11    12 1   
    24    11    31 1   
    25    11    32 1   
    26    12    13 1   
    27    12    33 1   
    28    12    34 1   
    29    13    14 2   
    30    13    35 1   
    31    14    15 1   
    32    14    36 1   
    33    15    16 1   
    34    15    37 1   
    35    15    38 1   
    36    16    21 1   
    37    16    39 1   
    38    16    40 1   
    39    18    25 1   
    40    19    26 1   
    41    21    23 1   
    42    21    41 1   
    43    21    42 1   
    44    23    46 1   
    45    43    46 1   
    46    44    46 1   
    47    45    46 1   
@<TRIPOS>SUBSTRUCTURE
     1 L4V         1 TEMP              0 ****  ****    0 ROOT
