@<TRIPOS>MOLECULE
L4V
   46    47     1     0     0
SMALL
abcg2


@<TRIPOS>ATOM
      1 C1           0.3400    -1.5120    -0.8430 c          1 L4V       0.629700
      2 C2          -1.0220    -1.1690    -0.3120 ca         1 L4V      -0.204600
      3 C3          -2.0610    -2.0860    -0.4520 ca         1 L4V       0.211100
      4 C4          -3.3510    -1.7510    -0.0670 ca         1 L4V      -0.307000
      5 C5          -3.6150    -0.4890     0.4520 ca         1 L4V       0.204100
      6 C6          -2.5700     0.4240     0.5890 ca         1 L4V       0.049000
      7 C7          -1.2740     0.0950     0.2130 ca         1 L4V       0.049700
      8 C8          -0.1540     1.0740     0.3720 c3         1 L4V      -0.153100
      9 C9          -0.0980     2.1180    -0.7260 c          1 L4V       0.581100
     10 C10          1.0360     3.1110    -0.6590 c3         1 L4V      -0.178400
     11 C11          2.4350     2.4690    -0.6300 c3         1 L4V      -0.070400
     12 C12          3.0070     2.2360     0.7720 c3         1 L4V      -0.045200
     13 C13          4.3860     1.6480     0.7180 c2         1 L4V      -0.217200
     14 C14          4.6970     0.3530     0.7590 c2         1 L4V      -0.214200
     15 C15          3.7330    -0.7910     0.8530 c3         1 L4V      -0.042200
     16 C16          3.4900    -1.4170    -0.5240 c3         1 L4V      -0.093400
     17 O2           0.6620    -1.1390    -1.9640 o          1 L4V      -0.586100
     18 O3          -1.7460    -3.2890    -0.9590 oh         1 L4V      -0.522100
     19 O4          -4.8390    -0.1070     0.8330 oh         1 L4V      -0.508100
     20 CL1         -2.9310     1.9900     1.2320 cl         1 L4V      -0.177000
     21 C17          2.4900    -2.5670    -0.5290 c3         1 L4V       0.105000
     22 O5          -0.9280     2.1500    -1.6040 o          1 L4V      -0.494100
     23 N            1.1660    -2.2000    -0.0380 n          1 L4V      -0.405800
     24 H4          -4.1580    -2.4690    -0.1720 ha         1 L4V       0.119000
     25 H3          -2.5250    -3.8550    -1.0120 ho         1 L4V       0.470000
     26 HA          -5.4780    -0.8120     0.6740 ho         1 L4V       0.470000
     27 H81C        -0.2090     1.5950     1.3320 hc         1 L4V       0.079700
     28 H82C         0.8060     0.5540     0.3990 hc         1 L4V       0.079700
     29 H101         0.9430     3.7710    -1.5230 hc         1 L4V       0.066200
     30 H102         0.8980     3.7360     0.2310 hc         1 L4V       0.066200
     31 H111         2.4250     1.5280    -1.1900 hc         1 L4V       0.053200
     32 H112         3.1170     3.1240    -1.1760 hc         1 L4V       0.053200
     33 H121         3.0420     3.1970     1.2940 hc         1 L4V       0.041200
     34 H122         2.3410     1.6020     1.3600 hc         1 L4V       0.041200
     35 H13          5.1970     2.3600     0.5930 ha         1 L4V       0.169000
     36 H14          5.7440     0.0790     0.6660 ha         1 L4V       0.168000
     37 H151         4.1300    -1.5540     1.5280 hc         1 L4V       0.041700
     38 H152         2.7860    -0.4580     1.2860 hc         1 L4V       0.041700
     39 H161         3.1620    -0.6430    -1.2210 hc         1 L4V       0.055700
     40 H162         4.4350    -1.8000    -0.9190 hc         1 L4V       0.055700
     41 H171         2.4060    -2.9700    -1.5400 h1         1 L4V       0.052200
     42 H172         2.8530    -3.3780     0.1040 h1         1 L4V       0.052200
     43 H181        -0.0960    -2.2070     1.6410 h1         1 L4V       0.039367
     44 H182         0.5630    -3.7890     1.2070 h1         1 L4V       0.039367
     45 H183         1.5910    -2.5730     1.9720 h1         1 L4V       0.039367
     46 C18          0.7810    -2.7210     1.2590 c3         1 L4V       0.095300
@<TRIPOS>BOND
     1     1     2 1   
     2     1    17 2   
     3     1    23 1   
     4     2     3 ar  
     5     2     7 ar  
     6     3     4 ar  
     7     3    18 1   
     8     4     5 ar  
     9     4    24 1   
    10     5     6 ar  
    11     5    19 1   
    12     6     7 ar  
    13     6    20 1   
    14     7     8 1   
    15     8     9 1   
    16     8    27 1   
    17     8    28 1   
    18     9    10 1   
    19     9    22 2   
    20    10    11 1   
    21    10    29 1   
    22    10    30 1   
    23    11    12 1   
    24    11    31 1   
    25    11    32 1   
    26    12    13 1   
    27    12    33 1   
    28    12    34 1   
    29    13    14 2   
    30    13    35 1   
    31    14    15 1   
    32    14    36 1   
    33    15    16 1   
    34    15    37 1   
    35    15    38 1   
    36    16    21 1   
    37    16    39 1   
    38    16    40 1   
    39    18    25 1   
    40    19    26 1   
    41    21    23 1   
    42    21    41 1   
    43    21    42 1   
    44    23    46 1   
    45    43    46 1   
    46    44    46 1   
    47    45    46 1   
@<TRIPOS>SUBSTRUCTURE
     1 L4V         1 TEMP              0 ****  ****    0 ROOT
