@<TRIPOS>MOLECULE
L4W
   33    33     1     0     0
SMALL
abcg2


@<TRIPOS>ATOM
      1 C4          -2.3760     5.4130    13.2310 c3         1 L4W       0.163600
      2 C5          -4.1640     4.3820    14.4280 ca         1 L4W       0.207100
      3 C6          -5.5040     4.4380    14.8250 ca         1 L4W      -0.203500
      4 C7          -6.0400     3.4460    15.6190 ca         1 L4W       0.032500
      5 C8          -5.2400     2.3830    16.0240 ca         1 L4W      -0.325500
      6 C9          -3.9090     2.3170    15.6370 ca         1 L4W       0.032500
      7 C10         -3.3670     3.3100    14.8410 ca         1 L4W      -0.203500
      8 N           -6.0140    -0.1420    15.9640 n8         1 L4W      -1.001100
      9 C           -1.6550     9.5490    15.0330 c3         1 L4W      -0.089100
     10 O           -3.7340     5.3860    13.6620 os         1 L4W      -0.341100
     11 C1          -1.4280     8.2060    14.3520 c3         1 L4W      -0.076400
     12 C2          -2.3910     7.9790    13.1910 c3         1 L4W      -0.074400
     13 C3          -2.1630     6.6770    12.4260 c3         1 L4W      -0.074400
     14 O1          -7.2050     1.5520    17.5250 o          1 L4W      -0.548500
     15 O2          -4.9120     0.6900    18.0230 o          1 L4W      -0.548500
     16 S           -5.9040     1.1090    17.0410 sy         1 L4W       1.132600
     17 H1          -2.1610     4.5350    12.6130 h1         1 L4W       0.039700
     18 H2          -1.7080     5.3780    14.0970 h1         1 L4W       0.039700
     19 H3          -6.1200     5.2680    14.5040 ha         1 L4W       0.128000
     20 H4          -7.0770     3.5090    15.9190 ha         1 L4W       0.136000
     21 H5          -3.2790     1.4940    15.9500 ha         1 L4W       0.136000
     22 H6          -2.3290     3.2320    14.5520 ha         1 L4W       0.128000
     23 H7          -6.1210    -1.0320    16.4420 hn         1 L4W       0.470000
     24 H8          -6.7670    -0.0150    15.2960 hn         1 L4W       0.470000
     25 H9          -0.9580     9.7040    15.8570 hc         1 L4W       0.033033
     26 H10         -1.5270    10.3740    14.3300 hc         1 L4W       0.033033
     27 H11         -2.6670     9.6170    15.4380 hc         1 L4W       0.033033
     28 H12         -1.5310     7.4080    15.0930 hc         1 L4W       0.035700
     29 H13         -0.3990     8.1480    13.9850 hc         1 L4W       0.035700
     30 H14         -2.2910     8.8090    12.4860 hc         1 L4W       0.046700
     31 H15         -3.4210     8.0230    13.5580 hc         1 L4W       0.046700
     32 H16         -2.8080     6.6490    11.5440 hc         1 L4W       0.052200
     33 H17         -1.1350     6.6470    12.0520 hc         1 L4W       0.052200
@<TRIPOS>BOND
     1     1    10 1   
     2     1    13 1   
     3     1    17 1   
     4     1    18 1   
     5     2     3 ar  
     6     2     7 ar  
     7     2    10 1   
     8     3     4 ar  
     9     3    19 1   
    10     4     5 ar  
    11     4    20 1   
    12     5     6 ar  
    13     5    16 1   
    14     6     7 ar  
    15     6    21 1   
    16     7    22 1   
    17     8    16 1   
    18     8    23 1   
    19     8    24 1   
    20     9    11 1   
    21     9    25 1   
    22     9    26 1   
    23     9    27 1   
    24    11    12 1   
    25    11    28 1   
    26    11    29 1   
    27    12    13 1   
    28    12    30 1   
    29    12    31 1   
    30    13    32 1   
    31    13    33 1   
    32    14    16 2   
    33    15    16 2   
@<TRIPOS>SUBSTRUCTURE
     1 L4W         1 TEMP              0 ****  ****    0 ROOT
