@<TRIPOS>MOLECULE
L4W
   33    33     1     0     0
SMALL
No Charge or Current Charge


@<TRIPOS>ATOM
      1 C4          -2.2970     5.4010    13.2250 c3         1 L4W       0.163600
      2 C5          -4.1140     4.3000    14.4780 ca         1 L4W       0.207100
      3 C6          -5.4540     4.3350    14.8880 ca         1 L4W      -0.203500
      4 C7          -5.9830     3.3140    15.6950 ca         1 L4W       0.032500
      5 C8          -5.1590     2.2440    16.0970 ca         1 L4W      -0.325500
      6 C9          -3.8110     2.2030    15.6890 ca         1 L4W       0.032500
      7 C10         -3.2900     3.2280    14.8810 ca         1 L4W      -0.203500
      8 N           -6.2670    -0.1620    16.0050 n8         1 L4W      -1.001100
      9 C           -1.7330     9.6460    15.0080 c3         1 L4W      -0.089100
     10 O           -3.6570     5.3330    13.6870 os         1 L4W      -0.341100
     11 C1          -1.4680     8.2890    14.3280 c3         1 L4W      -0.076400
     12 C2          -2.4230     8.0120    13.1430 c3         1 L4W      -0.074400
     13 C3          -2.1340     6.6890    12.3870 c3         1 L4W      -0.074400
     14 O1          -7.0800     1.3590    17.7280 o          1 L4W      -0.548500
     15 O2          -4.7470     0.2920    17.8880 o          1 L4W      -0.548500
     16 S           -5.8170     0.9370    17.1270 sy         1 L4W       1.132600
     17 H1          -2.0610     4.5320    12.5960 h1         1 L4W       0.039700
     18 H2          -1.5970     5.4150    14.0690 h1         1 L4W       0.039700
     19 H3          -6.0890     5.1610    14.5780 ha         1 L4W       0.128000
     20 H4          -7.0270     3.3630    16.0040 ha         1 L4W       0.136000
     21 H5          -3.1650     1.3800    15.9930 ha         1 L4W       0.136000
     22 H6          -2.2490     3.1720    14.5800 ha         1 L4W       0.128000
     23 H7          -7.2360    -0.3220    16.2720 hn         1 L4W       0.470000
     24 H8          -6.3360     0.4070    15.1650 hn         1 L4W       0.470000
     25 H9          -1.0370     9.7990    15.8410 hc         1 L4W       0.033033
     26 H10         -1.6010    10.4700    14.2950 hc         1 L4W       0.033033
     27 H11         -2.7550     9.6890    15.4020 hc         1 L4W       0.033033
     28 H12         -1.5710     7.4970    15.0800 hc         1 L4W       0.035700
     29 H13         -0.4300     8.2640    13.9740 hc         1 L4W       0.035700
     30 H14         -2.3470     8.8400    12.4280 hc         1 L4W       0.046700
     31 H15         -3.4590     8.0080    13.5040 hc         1 L4W       0.046700
     32 H16         -2.7990     6.6260    11.5170 hc         1 L4W       0.052200
     33 H17         -1.1120     6.7210    11.9910 hc         1 L4W       0.052200
@<TRIPOS>BOND
     1     1    10 1   
     2     1    13 1   
     3     1    17 1   
     4     1    18 1   
     5     2     3 ar  
     6     2     7 ar  
     7     2    10 1   
     8     3     4 ar  
     9     3    19 1   
    10     4     5 ar  
    11     4    20 1   
    12     5     6 ar  
    13     5    16 1   
    14     6     7 ar  
    15     6    21 1   
    16     7    22 1   
    17     8    16 1   
    18     8    23 1   
    19     8    24 1   
    20     9    11 1   
    21     9    25 1   
    22     9    26 1   
    23     9    27 1   
    24    11    12 1   
    25    11    28 1   
    26    11    29 1   
    27    12    13 1   
    28    12    30 1   
    29    12    31 1   
    30    13    32 1   
    31    13    33 1   
    32    14    16 2   
    33    15    16 2   
@<TRIPOS>SUBSTRUCTURE
     1 L4W         1 TEMP              0 ****  ****    0 ROOT
